
---------- Begin Simulation Statistics ----------
simSeconds                                   0.808718                       # Number of seconds simulated (Second)
simTicks                                 808718251185                       # Number of ticks simulated (Tick)
finalTick                                808718251185                       # Number of ticks from beginning of simulation (restored from checkpoints and never reset) (Tick)
simFreq                                  1000000000000                       # The number of ticks per simulated second ((Tick/Second))
hostSeconds                                    637.56                       # Real time elapsed on the host (Second)
hostTickRate                               1268465555                       # The number of ticks simulated per host second (ticks/s) ((Tick/Second))
hostMemory                                    8561328                       # Number of bytes of host memory used (Byte)
simInsts                                    592617702                       # Number of instructions simulated (Count)
simOps                                     1201246167                       # Number of ops (including micro ops) simulated (Count)
hostInstRate                                   929514                       # Simulator instruction rate (inst/s) ((Count/Second))
hostOpRate                                    1884140                       # Simulator op (including micro ops) rate (op/s) ((Count/Second))
system.clk_domain.clock                           345                       # Clock period in ticks (Tick)
system.clk_domain.voltage_domain.voltage            1                       # Voltage in Volts (Volt)
system.cpu.numCycles                       2344110873                       # Number of cpu cycles simulated (Cycle)
system.cpu.numWorkItemsStarted                      0                       # Number of work items this cpu started (Count)
system.cpu.numWorkItemsCompleted                    0                       # Number of work items this cpu completed (Count)
system.cpu.dcache.demandHits::cpu.data      292109067                       # number of demand (read+write) hits (Count)
system.cpu.dcache.demandHits::total         292109067                       # number of demand (read+write) hits (Count)
system.cpu.dcache.overallHits::cpu.data     292109067                       # number of overall hits (Count)
system.cpu.dcache.overallHits::total        292109067                       # number of overall hits (Count)
system.cpu.dcache.demandMisses::cpu.data     12193207                       # number of demand (read+write) misses (Count)
system.cpu.dcache.demandMisses::total        12193207                       # number of demand (read+write) misses (Count)
system.cpu.dcache.overallMisses::cpu.data     12193207                       # number of overall misses (Count)
system.cpu.dcache.overallMisses::total       12193207                       # number of overall misses (Count)
system.cpu.dcache.demandMissLatency::cpu.data 109753985775                       # number of demand (read+write) miss ticks (Tick)
system.cpu.dcache.demandMissLatency::total 109753985775                       # number of demand (read+write) miss ticks (Tick)
system.cpu.dcache.overallMissLatency::cpu.data 109753985775                       # number of overall miss ticks (Tick)
system.cpu.dcache.overallMissLatency::total 109753985775                       # number of overall miss ticks (Tick)
system.cpu.dcache.demandAccesses::cpu.data    304302274                       # number of demand (read+write) accesses (Count)
system.cpu.dcache.demandAccesses::total     304302274                       # number of demand (read+write) accesses (Count)
system.cpu.dcache.overallAccesses::cpu.data    304302274                       # number of overall (read+write) accesses (Count)
system.cpu.dcache.overallAccesses::total    304302274                       # number of overall (read+write) accesses (Count)
system.cpu.dcache.demandMissRate::cpu.data     0.040069                       # miss rate for demand accesses (Ratio)
system.cpu.dcache.demandMissRate::total      0.040069                       # miss rate for demand accesses (Ratio)
system.cpu.dcache.overallMissRate::cpu.data     0.040069                       # miss rate for overall accesses (Ratio)
system.cpu.dcache.overallMissRate::total     0.040069                       # miss rate for overall accesses (Ratio)
system.cpu.dcache.demandAvgMissLatency::cpu.data  9001.240262                       # average overall miss latency in ticks ((Tick/Count))
system.cpu.dcache.demandAvgMissLatency::total  9001.240262                       # average overall miss latency in ticks ((Tick/Count))
system.cpu.dcache.overallAvgMissLatency::cpu.data  9001.240262                       # average overall miss latency ((Tick/Count))
system.cpu.dcache.overallAvgMissLatency::total  9001.240262                       # average overall miss latency ((Tick/Count))
system.cpu.dcache.blockedCycles::no_mshrs            0                       # number of cycles access was blocked (Cycle)
system.cpu.dcache.blockedCycles::no_targets            0                       # number of cycles access was blocked (Cycle)
system.cpu.dcache.blockedCauses::no_mshrs            0                       # number of times access was blocked (Count)
system.cpu.dcache.blockedCauses::no_targets            0                       # number of times access was blocked (Count)
system.cpu.dcache.avgBlocked::no_mshrs            nan                       # average number of cycles each access was blocked ((Cycle/Count))
system.cpu.dcache.avgBlocked::no_targets          nan                       # average number of cycles each access was blocked ((Cycle/Count))
system.cpu.dcache.writebacks::writebacks     12191415                       # number of writebacks (Count)
system.cpu.dcache.writebacks::total          12191415                       # number of writebacks (Count)
system.cpu.dcache.demandMshrMisses::cpu.data     12193207                       # number of demand (read+write) MSHR misses (Count)
system.cpu.dcache.demandMshrMisses::total     12193207                       # number of demand (read+write) MSHR misses (Count)
system.cpu.dcache.overallMshrMisses::cpu.data     12193207                       # number of overall MSHR misses (Count)
system.cpu.dcache.overallMshrMisses::total     12193207                       # number of overall MSHR misses (Count)
system.cpu.dcache.demandMshrMissLatency::cpu.data 101340672945                       # number of demand (read+write) MSHR miss ticks (Tick)
system.cpu.dcache.demandMshrMissLatency::total 101340672945                       # number of demand (read+write) MSHR miss ticks (Tick)
system.cpu.dcache.overallMshrMissLatency::cpu.data 101340672945                       # number of overall MSHR miss ticks (Tick)
system.cpu.dcache.overallMshrMissLatency::total 101340672945                       # number of overall MSHR miss ticks (Tick)
system.cpu.dcache.demandMshrMissRate::cpu.data     0.040069                       # mshr miss ratio for demand accesses (Ratio)
system.cpu.dcache.demandMshrMissRate::total     0.040069                       # mshr miss ratio for demand accesses (Ratio)
system.cpu.dcache.overallMshrMissRate::cpu.data     0.040069                       # mshr miss ratio for overall accesses (Ratio)
system.cpu.dcache.overallMshrMissRate::total     0.040069                       # mshr miss ratio for overall accesses (Ratio)
system.cpu.dcache.demandAvgMshrMissLatency::cpu.data  8311.240262                       # average overall mshr miss latency ((Tick/Count))
system.cpu.dcache.demandAvgMshrMissLatency::total  8311.240262                       # average overall mshr miss latency ((Tick/Count))
system.cpu.dcache.overallAvgMshrMissLatency::cpu.data  8311.240262                       # average overall mshr miss latency ((Tick/Count))
system.cpu.dcache.overallAvgMshrMissLatency::total  8311.240262                       # average overall mshr miss latency ((Tick/Count))
system.cpu.dcache.replacements               12192698                       # number of replacements (Count)
system.cpu.dcache.LockedRMWReadReq.hits::cpu.data           17                       # number of LockedRMWReadReq hits (Count)
system.cpu.dcache.LockedRMWReadReq.hits::total           17                       # number of LockedRMWReadReq hits (Count)
system.cpu.dcache.LockedRMWReadReq.misses::cpu.data            3                       # number of LockedRMWReadReq misses (Count)
system.cpu.dcache.LockedRMWReadReq.misses::total            3                       # number of LockedRMWReadReq misses (Count)
system.cpu.dcache.LockedRMWReadReq.missLatency::cpu.data       165255                       # number of LockedRMWReadReq miss ticks (Tick)
system.cpu.dcache.LockedRMWReadReq.missLatency::total       165255                       # number of LockedRMWReadReq miss ticks (Tick)
system.cpu.dcache.LockedRMWReadReq.accesses::cpu.data           20                       # number of LockedRMWReadReq accesses(hits+misses) (Count)
system.cpu.dcache.LockedRMWReadReq.accesses::total           20                       # number of LockedRMWReadReq accesses(hits+misses) (Count)
system.cpu.dcache.LockedRMWReadReq.missRate::cpu.data     0.150000                       # miss rate for LockedRMWReadReq accesses (Ratio)
system.cpu.dcache.LockedRMWReadReq.missRate::total     0.150000                       # miss rate for LockedRMWReadReq accesses (Ratio)
system.cpu.dcache.LockedRMWReadReq.avgMissLatency::cpu.data        55085                       # average LockedRMWReadReq miss latency ((Tick/Count))
system.cpu.dcache.LockedRMWReadReq.avgMissLatency::total        55085                       # average LockedRMWReadReq miss latency ((Tick/Count))
system.cpu.dcache.LockedRMWReadReq.mshrMisses::cpu.data            3                       # number of LockedRMWReadReq MSHR misses (Count)
system.cpu.dcache.LockedRMWReadReq.mshrMisses::total            3                       # number of LockedRMWReadReq MSHR misses (Count)
system.cpu.dcache.LockedRMWReadReq.mshrMissLatency::cpu.data       340170                       # number of LockedRMWReadReq MSHR miss ticks (Tick)
system.cpu.dcache.LockedRMWReadReq.mshrMissLatency::total       340170                       # number of LockedRMWReadReq MSHR miss ticks (Tick)
system.cpu.dcache.LockedRMWReadReq.mshrMissRate::cpu.data     0.150000                       # mshr miss rate for LockedRMWReadReq accesses (Ratio)
system.cpu.dcache.LockedRMWReadReq.mshrMissRate::total     0.150000                       # mshr miss rate for LockedRMWReadReq accesses (Ratio)
system.cpu.dcache.LockedRMWReadReq.avgMshrMissLatency::cpu.data       113390                       # average LockedRMWReadReq mshr miss latency ((Tick/Count))
system.cpu.dcache.LockedRMWReadReq.avgMshrMissLatency::total       113390                       # average LockedRMWReadReq mshr miss latency ((Tick/Count))
system.cpu.dcache.LockedRMWWriteReq.hits::cpu.data           20                       # number of LockedRMWWriteReq hits (Count)
system.cpu.dcache.LockedRMWWriteReq.hits::total           20                       # number of LockedRMWWriteReq hits (Count)
system.cpu.dcache.LockedRMWWriteReq.accesses::cpu.data           20                       # number of LockedRMWWriteReq accesses(hits+misses) (Count)
system.cpu.dcache.LockedRMWWriteReq.accesses::total           20                       # number of LockedRMWWriteReq accesses(hits+misses) (Count)
system.cpu.dcache.ReadReq.hits::cpu.data    170080777                       # number of ReadReq hits (Count)
system.cpu.dcache.ReadReq.hits::total       170080777                       # number of ReadReq hits (Count)
system.cpu.dcache.ReadReq.misses::cpu.data      6096837                       # number of ReadReq misses (Count)
system.cpu.dcache.ReadReq.misses::total       6096837                       # number of ReadReq misses (Count)
system.cpu.dcache.ReadReq.missLatency::cpu.data  54782722500                       # number of ReadReq miss ticks (Tick)
system.cpu.dcache.ReadReq.missLatency::total  54782722500                       # number of ReadReq miss ticks (Tick)
system.cpu.dcache.ReadReq.accesses::cpu.data    176177614                       # number of ReadReq accesses(hits+misses) (Count)
system.cpu.dcache.ReadReq.accesses::total    176177614                       # number of ReadReq accesses(hits+misses) (Count)
system.cpu.dcache.ReadReq.missRate::cpu.data     0.034606                       # miss rate for ReadReq accesses (Ratio)
system.cpu.dcache.ReadReq.missRate::total     0.034606                       # miss rate for ReadReq accesses (Ratio)
system.cpu.dcache.ReadReq.avgMissLatency::cpu.data  8985.433348                       # average ReadReq miss latency ((Tick/Count))
system.cpu.dcache.ReadReq.avgMissLatency::total  8985.433348                       # average ReadReq miss latency ((Tick/Count))
system.cpu.dcache.ReadReq.mshrMisses::cpu.data      6096837                       # number of ReadReq MSHR misses (Count)
system.cpu.dcache.ReadReq.mshrMisses::total      6096837                       # number of ReadReq MSHR misses (Count)
system.cpu.dcache.ReadReq.mshrMissLatency::cpu.data  50575904970                       # number of ReadReq MSHR miss ticks (Tick)
system.cpu.dcache.ReadReq.mshrMissLatency::total  50575904970                       # number of ReadReq MSHR miss ticks (Tick)
system.cpu.dcache.ReadReq.mshrMissRate::cpu.data     0.034606                       # mshr miss rate for ReadReq accesses (Ratio)
system.cpu.dcache.ReadReq.mshrMissRate::total     0.034606                       # mshr miss rate for ReadReq accesses (Ratio)
system.cpu.dcache.ReadReq.avgMshrMissLatency::cpu.data  8295.433348                       # average ReadReq mshr miss latency ((Tick/Count))
system.cpu.dcache.ReadReq.avgMshrMissLatency::total  8295.433348                       # average ReadReq mshr miss latency ((Tick/Count))
system.cpu.dcache.WriteReq.hits::cpu.data    122028290                       # number of WriteReq hits (Count)
system.cpu.dcache.WriteReq.hits::total      122028290                       # number of WriteReq hits (Count)
system.cpu.dcache.WriteReq.misses::cpu.data      6096370                       # number of WriteReq misses (Count)
system.cpu.dcache.WriteReq.misses::total      6096370                       # number of WriteReq misses (Count)
system.cpu.dcache.WriteReq.missLatency::cpu.data  54971263275                       # number of WriteReq miss ticks (Tick)
system.cpu.dcache.WriteReq.missLatency::total  54971263275                       # number of WriteReq miss ticks (Tick)
system.cpu.dcache.WriteReq.accesses::cpu.data    128124660                       # number of WriteReq accesses(hits+misses) (Count)
system.cpu.dcache.WriteReq.accesses::total    128124660                       # number of WriteReq accesses(hits+misses) (Count)
system.cpu.dcache.WriteReq.missRate::cpu.data     0.047582                       # miss rate for WriteReq accesses (Ratio)
system.cpu.dcache.WriteReq.missRate::total     0.047582                       # miss rate for WriteReq accesses (Ratio)
system.cpu.dcache.WriteReq.avgMissLatency::cpu.data  9017.048387                       # average WriteReq miss latency ((Tick/Count))
system.cpu.dcache.WriteReq.avgMissLatency::total  9017.048387                       # average WriteReq miss latency ((Tick/Count))
system.cpu.dcache.WriteReq.mshrMisses::cpu.data      6096370                       # number of WriteReq MSHR misses (Count)
system.cpu.dcache.WriteReq.mshrMisses::total      6096370                       # number of WriteReq MSHR misses (Count)
system.cpu.dcache.WriteReq.mshrMissLatency::cpu.data  50764767975                       # number of WriteReq MSHR miss ticks (Tick)
system.cpu.dcache.WriteReq.mshrMissLatency::total  50764767975                       # number of WriteReq MSHR miss ticks (Tick)
system.cpu.dcache.WriteReq.mshrMissRate::cpu.data     0.047582                       # mshr miss rate for WriteReq accesses (Ratio)
system.cpu.dcache.WriteReq.mshrMissRate::total     0.047582                       # mshr miss rate for WriteReq accesses (Ratio)
system.cpu.dcache.WriteReq.avgMshrMissLatency::cpu.data  8327.048387                       # average WriteReq mshr miss latency ((Tick/Count))
system.cpu.dcache.WriteReq.avgMshrMissLatency::total  8327.048387                       # average WriteReq mshr miss latency ((Tick/Count))
system.cpu.dcache.power_state.pwrStateResidencyTicks::UNDEFINED 808718251185                       # Cumulative time (in ticks) in various power states (Tick)
system.cpu.dcache.tags.tagsInUse           511.966698                       # Average ticks per tags in use ((Tick/Count))
system.cpu.dcache.tags.totalRefs            304302314                       # Total number of references to valid blocks. (Count)
system.cpu.dcache.tags.sampledRefs           12193210                       # Sample count of references to valid blocks. (Count)
system.cpu.dcache.tags.avgRefs              24.956702                       # Average number of references to valid blocks. ((Count/Count))
system.cpu.dcache.tags.warmupTick              148350                       # The tick when the warmup percentage was hit. (Tick)
system.cpu.dcache.tags.occupancies::cpu.data   511.966698                       # Average occupied blocks per tick, per requestor ((Count/Tick))
system.cpu.dcache.tags.avgOccs::cpu.data     0.999935                       # Average percentage of cache occupancy ((Ratio/Tick))
system.cpu.dcache.tags.avgOccs::total        0.999935                       # Average percentage of cache occupancy ((Ratio/Tick))
system.cpu.dcache.tags.occupanciesTaskId::1024          512                       # Occupied blocks per task id (Count)
system.cpu.dcache.tags.ageTaskId_1024::0           43                       # Occupied blocks per task id, per block age (Count)
system.cpu.dcache.tags.ageTaskId_1024::1          469                       # Occupied blocks per task id, per block age (Count)
system.cpu.dcache.tags.ratioOccsTaskId::1024            1                       # Ratio of occupied blocks and all blocks, per task id (Ratio)
system.cpu.dcache.tags.tagAccesses          620797838                       # Number of tag accesses (Count)
system.cpu.dcache.tags.dataAccesses         620797838                       # Number of data accesses (Count)
system.cpu.dcache.tags.power_state.pwrStateResidencyTicks::UNDEFINED 808718251185                       # Cumulative time (in ticks) in various power states (Tick)
system.cpu.exec_context.thread_0.numInsts    592617702                       # Number of instructions committed (Count)
system.cpu.exec_context.thread_0.numOps    1201246167                       # Number of ops (including micro ops) committed (Count)
system.cpu.exec_context.thread_0.numIntAluAccesses   1169213066                       # Number of integer alu accesses (Count)
system.cpu.exec_context.thread_0.numFpAluAccesses         6101                       # Number of float alu accesses (Count)
system.cpu.exec_context.thread_0.numVecAluAccesses            0                       # Number of vector alu accesses (Count)
system.cpu.exec_context.thread_0.numCallsReturns     64057665                       # Number of times a function call or return occured (Count)
system.cpu.exec_context.thread_0.numCondCtrlInsts     48060721                       # Number of instructions that are conditional controls (Count)
system.cpu.exec_context.thread_0.numIntInsts   1169213066                       # Number of integer instructions (Count)
system.cpu.exec_context.thread_0.numFpInsts         6101                       # Number of float instructions (Count)
system.cpu.exec_context.thread_0.numVecInsts            0                       # Number of vector instructions (Count)
system.cpu.exec_context.thread_0.numIntRegReads   1569604130                       # Number of times the integer registers were read (Count)
system.cpu.exec_context.thread_0.numIntRegWrites    864896021                       # Number of times the integer registers were written (Count)
system.cpu.exec_context.thread_0.numFpRegReads         8602                       # Number of times the floating registers were read (Count)
system.cpu.exec_context.thread_0.numFpRegWrites         4447                       # Number of times the floating registers were written (Count)
system.cpu.exec_context.thread_0.numVecRegReads            0                       # Number of times the vector registers were read (Count)
system.cpu.exec_context.thread_0.numVecRegWrites            0                       # Number of times the vector registers were written (Count)
system.cpu.exec_context.thread_0.numVecPredRegReads            0                       # Number of times the predicate registers were read (Count)
system.cpu.exec_context.thread_0.numVecPredRegWrites            0                       # Number of times the predicate registers were written (Count)
system.cpu.exec_context.thread_0.numCCRegReads    240333701                       # Number of times the CC registers were read (Count)
system.cpu.exec_context.thread_0.numCCRegWrites    224274476                       # Number of times the CC registers were written (Count)
system.cpu.exec_context.thread_0.numMiscRegReads    528544039                       # Number of times the Misc registers were read (Count)
system.cpu.exec_context.thread_0.numMiscRegWrites           18                       # Number of times the Misc registers were written (Count)
system.cpu.exec_context.thread_0.numMemRefs    304302433                       # Number of memory refs (Count)
system.cpu.exec_context.thread_0.numLoadInsts    176177679                       # Number of load instructions (Count)
system.cpu.exec_context.thread_0.numStoreInsts    128124754                       # Number of store instructions (Count)
system.cpu.exec_context.thread_0.numIdleCycles     0.002899                       # Number of idle cycles (Cycle)
system.cpu.exec_context.thread_0.numBusyCycles 2344110872.997101                       # Number of busy cycles (Cycle)
system.cpu.exec_context.thread_0.notIdleFraction     1.000000                       # Percentage of non-idle cycles (Ratio)
system.cpu.exec_context.thread_0.idleFraction     0.000000                       # Percentage of idle cycles (Ratio)
system.cpu.exec_context.thread_0.numBranches    128135424                       # Number of branches fetched (Count)
system.cpu.exec_context.thread_0.statExecutedInstType::No_OpClass     32029141      2.67%      2.67% # Class of executed instruction. (Count)
system.cpu.exec_context.thread_0.statExecutedInstType::IntAlu    864909722     72.00%     74.67% # Class of executed instruction. (Count)
system.cpu.exec_context.thread_0.statExecutedInstType::IntMult           29      0.00%     74.67% # Class of executed instruction. (Count)
system.cpu.exec_context.thread_0.statExecutedInstType::IntDiv         1395      0.00%     74.67% # Class of executed instruction. (Count)
system.cpu.exec_context.thread_0.statExecutedInstType::FloatAdd          429      0.00%     74.67% # Class of executed instruction. (Count)
system.cpu.exec_context.thread_0.statExecutedInstType::FloatCmp            0      0.00%     74.67% # Class of executed instruction. (Count)
system.cpu.exec_context.thread_0.statExecutedInstType::FloatCvt           32      0.00%     74.67% # Class of executed instruction. (Count)
system.cpu.exec_context.thread_0.statExecutedInstType::FloatMult            0      0.00%     74.67% # Class of executed instruction. (Count)
system.cpu.exec_context.thread_0.statExecutedInstType::FloatMultAcc            0      0.00%     74.67% # Class of executed instruction. (Count)
system.cpu.exec_context.thread_0.statExecutedInstType::FloatDiv            0      0.00%     74.67% # Class of executed instruction. (Count)
system.cpu.exec_context.thread_0.statExecutedInstType::FloatMisc            0      0.00%     74.67% # Class of executed instruction. (Count)
system.cpu.exec_context.thread_0.statExecutedInstType::FloatSqrt            0      0.00%     74.67% # Class of executed instruction. (Count)
system.cpu.exec_context.thread_0.statExecutedInstType::SimdAdd          342      0.00%     74.67% # Class of executed instruction. (Count)
system.cpu.exec_context.thread_0.statExecutedInstType::SimdAddAcc            0      0.00%     74.67% # Class of executed instruction. (Count)
system.cpu.exec_context.thread_0.statExecutedInstType::SimdAlu          805      0.00%     74.67% # Class of executed instruction. (Count)
system.cpu.exec_context.thread_0.statExecutedInstType::SimdCmp            6      0.00%     74.67% # Class of executed instruction. (Count)
system.cpu.exec_context.thread_0.statExecutedInstType::SimdCvt          834      0.00%     74.67% # Class of executed instruction. (Count)
system.cpu.exec_context.thread_0.statExecutedInstType::SimdMisc          995      0.00%     74.67% # Class of executed instruction. (Count)
system.cpu.exec_context.thread_0.statExecutedInstType::SimdMult            0      0.00%     74.67% # Class of executed instruction. (Count)
system.cpu.exec_context.thread_0.statExecutedInstType::SimdMultAcc            0      0.00%     74.67% # Class of executed instruction. (Count)
system.cpu.exec_context.thread_0.statExecutedInstType::SimdShift          171      0.00%     74.67% # Class of executed instruction. (Count)
system.cpu.exec_context.thread_0.statExecutedInstType::SimdShiftAcc            0      0.00%     74.67% # Class of executed instruction. (Count)
system.cpu.exec_context.thread_0.statExecutedInstType::SimdDiv            0      0.00%     74.67% # Class of executed instruction. (Count)
system.cpu.exec_context.thread_0.statExecutedInstType::SimdSqrt            0      0.00%     74.67% # Class of executed instruction. (Count)
system.cpu.exec_context.thread_0.statExecutedInstType::SimdFloatAdd            0      0.00%     74.67% # Class of executed instruction. (Count)
system.cpu.exec_context.thread_0.statExecutedInstType::SimdFloatAlu            0      0.00%     74.67% # Class of executed instruction. (Count)
system.cpu.exec_context.thread_0.statExecutedInstType::SimdFloatCmp            0      0.00%     74.67% # Class of executed instruction. (Count)
system.cpu.exec_context.thread_0.statExecutedInstType::SimdFloatCvt            0      0.00%     74.67% # Class of executed instruction. (Count)
system.cpu.exec_context.thread_0.statExecutedInstType::SimdFloatDiv            0      0.00%     74.67% # Class of executed instruction. (Count)
system.cpu.exec_context.thread_0.statExecutedInstType::SimdFloatMisc            0      0.00%     74.67% # Class of executed instruction. (Count)
system.cpu.exec_context.thread_0.statExecutedInstType::SimdFloatMult            0      0.00%     74.67% # Class of executed instruction. (Count)
system.cpu.exec_context.thread_0.statExecutedInstType::SimdFloatMultAcc            0      0.00%     74.67% # Class of executed instruction. (Count)
system.cpu.exec_context.thread_0.statExecutedInstType::SimdFloatSqrt            0      0.00%     74.67% # Class of executed instruction. (Count)
system.cpu.exec_context.thread_0.statExecutedInstType::SimdReduceAdd            0      0.00%     74.67% # Class of executed instruction. (Count)
system.cpu.exec_context.thread_0.statExecutedInstType::SimdReduceAlu            0      0.00%     74.67% # Class of executed instruction. (Count)
system.cpu.exec_context.thread_0.statExecutedInstType::SimdReduceCmp            0      0.00%     74.67% # Class of executed instruction. (Count)
system.cpu.exec_context.thread_0.statExecutedInstType::SimdFloatReduceAdd            0      0.00%     74.67% # Class of executed instruction. (Count)
system.cpu.exec_context.thread_0.statExecutedInstType::SimdFloatReduceCmp            0      0.00%     74.67% # Class of executed instruction. (Count)
system.cpu.exec_context.thread_0.statExecutedInstType::SimdAes            0      0.00%     74.67% # Class of executed instruction. (Count)
system.cpu.exec_context.thread_0.statExecutedInstType::SimdAesMix            0      0.00%     74.67% # Class of executed instruction. (Count)
system.cpu.exec_context.thread_0.statExecutedInstType::SimdSha1Hash            0      0.00%     74.67% # Class of executed instruction. (Count)
system.cpu.exec_context.thread_0.statExecutedInstType::SimdSha1Hash2            0      0.00%     74.67% # Class of executed instruction. (Count)
system.cpu.exec_context.thread_0.statExecutedInstType::SimdSha256Hash            0      0.00%     74.67% # Class of executed instruction. (Count)
system.cpu.exec_context.thread_0.statExecutedInstType::SimdSha256Hash2            0      0.00%     74.67% # Class of executed instruction. (Count)
system.cpu.exec_context.thread_0.statExecutedInstType::SimdShaSigma2            0      0.00%     74.67% # Class of executed instruction. (Count)
system.cpu.exec_context.thread_0.statExecutedInstType::SimdShaSigma3            0      0.00%     74.67% # Class of executed instruction. (Count)
system.cpu.exec_context.thread_0.statExecutedInstType::SimdPredAlu            0      0.00%     74.67% # Class of executed instruction. (Count)
system.cpu.exec_context.thread_0.statExecutedInstType::MemRead    176176709     14.67%     89.33% # Class of executed instruction. (Count)
system.cpu.exec_context.thread_0.statExecutedInstType::MemWrite    128123591     10.67%    100.00% # Class of executed instruction. (Count)
system.cpu.exec_context.thread_0.statExecutedInstType::FloatMemRead          970      0.00%    100.00% # Class of executed instruction. (Count)
system.cpu.exec_context.thread_0.statExecutedInstType::FloatMemWrite         1163      0.00%    100.00% # Class of executed instruction. (Count)
system.cpu.exec_context.thread_0.statExecutedInstType::IprAccess            0      0.00%    100.00% # Class of executed instruction. (Count)
system.cpu.exec_context.thread_0.statExecutedInstType::InstPrefetch            0      0.00%    100.00% # Class of executed instruction. (Count)
system.cpu.exec_context.thread_0.statExecutedInstType::total   1201246334                       # Class of executed instruction. (Count)
system.cpu.icache.demandHits::cpu.inst      720766168                       # number of demand (read+write) hits (Count)
system.cpu.icache.demandHits::total         720766168                       # number of demand (read+write) hits (Count)
system.cpu.icache.overallHits::cpu.inst     720766168                       # number of overall hits (Count)
system.cpu.icache.overallHits::total        720766168                       # number of overall hits (Count)
system.cpu.icache.demandMisses::cpu.inst         1262                       # number of demand (read+write) misses (Count)
system.cpu.icache.demandMisses::total            1262                       # number of demand (read+write) misses (Count)
system.cpu.icache.overallMisses::cpu.inst         1262                       # number of overall misses (Count)
system.cpu.icache.overallMisses::total           1262                       # number of overall misses (Count)
system.cpu.icache.demandMissLatency::cpu.inst     80252520                       # number of demand (read+write) miss ticks (Tick)
system.cpu.icache.demandMissLatency::total     80252520                       # number of demand (read+write) miss ticks (Tick)
system.cpu.icache.overallMissLatency::cpu.inst     80252520                       # number of overall miss ticks (Tick)
system.cpu.icache.overallMissLatency::total     80252520                       # number of overall miss ticks (Tick)
system.cpu.icache.demandAccesses::cpu.inst    720767430                       # number of demand (read+write) accesses (Count)
system.cpu.icache.demandAccesses::total     720767430                       # number of demand (read+write) accesses (Count)
system.cpu.icache.overallAccesses::cpu.inst    720767430                       # number of overall (read+write) accesses (Count)
system.cpu.icache.overallAccesses::total    720767430                       # number of overall (read+write) accesses (Count)
system.cpu.icache.demandMissRate::cpu.inst     0.000002                       # miss rate for demand accesses (Ratio)
system.cpu.icache.demandMissRate::total      0.000002                       # miss rate for demand accesses (Ratio)
system.cpu.icache.overallMissRate::cpu.inst     0.000002                       # miss rate for overall accesses (Ratio)
system.cpu.icache.overallMissRate::total     0.000002                       # miss rate for overall accesses (Ratio)
system.cpu.icache.demandAvgMissLatency::cpu.inst 63591.537242                       # average overall miss latency in ticks ((Tick/Count))
system.cpu.icache.demandAvgMissLatency::total 63591.537242                       # average overall miss latency in ticks ((Tick/Count))
system.cpu.icache.overallAvgMissLatency::cpu.inst 63591.537242                       # average overall miss latency ((Tick/Count))
system.cpu.icache.overallAvgMissLatency::total 63591.537242                       # average overall miss latency ((Tick/Count))
system.cpu.icache.blockedCycles::no_mshrs            0                       # number of cycles access was blocked (Cycle)
system.cpu.icache.blockedCycles::no_targets            0                       # number of cycles access was blocked (Cycle)
system.cpu.icache.blockedCauses::no_mshrs            0                       # number of times access was blocked (Count)
system.cpu.icache.blockedCauses::no_targets            0                       # number of times access was blocked (Count)
system.cpu.icache.avgBlocked::no_mshrs            nan                       # average number of cycles each access was blocked ((Cycle/Count))
system.cpu.icache.avgBlocked::no_targets          nan                       # average number of cycles each access was blocked ((Cycle/Count))
system.cpu.icache.demandMshrMisses::cpu.inst         1262                       # number of demand (read+write) MSHR misses (Count)
system.cpu.icache.demandMshrMisses::total         1262                       # number of demand (read+write) MSHR misses (Count)
system.cpu.icache.overallMshrMisses::cpu.inst         1262                       # number of overall MSHR misses (Count)
system.cpu.icache.overallMshrMisses::total         1262                       # number of overall MSHR misses (Count)
system.cpu.icache.demandMshrMissLatency::cpu.inst     79381740                       # number of demand (read+write) MSHR miss ticks (Tick)
system.cpu.icache.demandMshrMissLatency::total     79381740                       # number of demand (read+write) MSHR miss ticks (Tick)
system.cpu.icache.overallMshrMissLatency::cpu.inst     79381740                       # number of overall MSHR miss ticks (Tick)
system.cpu.icache.overallMshrMissLatency::total     79381740                       # number of overall MSHR miss ticks (Tick)
system.cpu.icache.demandMshrMissRate::cpu.inst     0.000002                       # mshr miss ratio for demand accesses (Ratio)
system.cpu.icache.demandMshrMissRate::total     0.000002                       # mshr miss ratio for demand accesses (Ratio)
system.cpu.icache.overallMshrMissRate::cpu.inst     0.000002                       # mshr miss ratio for overall accesses (Ratio)
system.cpu.icache.overallMshrMissRate::total     0.000002                       # mshr miss ratio for overall accesses (Ratio)
system.cpu.icache.demandAvgMshrMissLatency::cpu.inst 62901.537242                       # average overall mshr miss latency ((Tick/Count))
system.cpu.icache.demandAvgMshrMissLatency::total 62901.537242                       # average overall mshr miss latency ((Tick/Count))
system.cpu.icache.overallAvgMshrMissLatency::cpu.inst 62901.537242                       # average overall mshr miss latency ((Tick/Count))
system.cpu.icache.overallAvgMshrMissLatency::total 62901.537242                       # average overall mshr miss latency ((Tick/Count))
system.cpu.icache.replacements                    757                       # number of replacements (Count)
system.cpu.icache.ReadReq.hits::cpu.inst    720766168                       # number of ReadReq hits (Count)
system.cpu.icache.ReadReq.hits::total       720766168                       # number of ReadReq hits (Count)
system.cpu.icache.ReadReq.misses::cpu.inst         1262                       # number of ReadReq misses (Count)
system.cpu.icache.ReadReq.misses::total          1262                       # number of ReadReq misses (Count)
system.cpu.icache.ReadReq.missLatency::cpu.inst     80252520                       # number of ReadReq miss ticks (Tick)
system.cpu.icache.ReadReq.missLatency::total     80252520                       # number of ReadReq miss ticks (Tick)
system.cpu.icache.ReadReq.accesses::cpu.inst    720767430                       # number of ReadReq accesses(hits+misses) (Count)
system.cpu.icache.ReadReq.accesses::total    720767430                       # number of ReadReq accesses(hits+misses) (Count)
system.cpu.icache.ReadReq.missRate::cpu.inst     0.000002                       # miss rate for ReadReq accesses (Ratio)
system.cpu.icache.ReadReq.missRate::total     0.000002                       # miss rate for ReadReq accesses (Ratio)
system.cpu.icache.ReadReq.avgMissLatency::cpu.inst 63591.537242                       # average ReadReq miss latency ((Tick/Count))
system.cpu.icache.ReadReq.avgMissLatency::total 63591.537242                       # average ReadReq miss latency ((Tick/Count))
system.cpu.icache.ReadReq.mshrMisses::cpu.inst         1262                       # number of ReadReq MSHR misses (Count)
system.cpu.icache.ReadReq.mshrMisses::total         1262                       # number of ReadReq MSHR misses (Count)
system.cpu.icache.ReadReq.mshrMissLatency::cpu.inst     79381740                       # number of ReadReq MSHR miss ticks (Tick)
system.cpu.icache.ReadReq.mshrMissLatency::total     79381740                       # number of ReadReq MSHR miss ticks (Tick)
system.cpu.icache.ReadReq.mshrMissRate::cpu.inst     0.000002                       # mshr miss rate for ReadReq accesses (Ratio)
system.cpu.icache.ReadReq.mshrMissRate::total     0.000002                       # mshr miss rate for ReadReq accesses (Ratio)
system.cpu.icache.ReadReq.avgMshrMissLatency::cpu.inst 62901.537242                       # average ReadReq mshr miss latency ((Tick/Count))
system.cpu.icache.ReadReq.avgMshrMissLatency::total 62901.537242                       # average ReadReq mshr miss latency ((Tick/Count))
system.cpu.icache.power_state.pwrStateResidencyTicks::UNDEFINED 808718251185                       # Cumulative time (in ticks) in various power states (Tick)
system.cpu.icache.tags.tagsInUse           480.965422                       # Average ticks per tags in use ((Tick/Count))
system.cpu.icache.tags.totalRefs            720767430                       # Total number of references to valid blocks. (Count)
system.cpu.icache.tags.sampledRefs               1262                       # Sample count of references to valid blocks. (Count)
system.cpu.icache.tags.avgRefs           571131.085578                       # Average number of references to valid blocks. ((Count/Count))
system.cpu.icache.tags.warmupTick               76590                       # The tick when the warmup percentage was hit. (Tick)
system.cpu.icache.tags.occupancies::cpu.inst   480.965422                       # Average occupied blocks per tick, per requestor ((Count/Tick))
system.cpu.icache.tags.avgOccs::cpu.inst     0.939386                       # Average percentage of cache occupancy ((Ratio/Tick))
system.cpu.icache.tags.avgOccs::total        0.939386                       # Average percentage of cache occupancy ((Ratio/Tick))
system.cpu.icache.tags.occupanciesTaskId::1024          505                       # Occupied blocks per task id (Count)
system.cpu.icache.tags.ageTaskId_1024::0           79                       # Occupied blocks per task id, per block age (Count)
system.cpu.icache.tags.ageTaskId_1024::1          168                       # Occupied blocks per task id, per block age (Count)
system.cpu.icache.tags.ageTaskId_1024::4          258                       # Occupied blocks per task id, per block age (Count)
system.cpu.icache.tags.ratioOccsTaskId::1024     0.986328                       # Ratio of occupied blocks and all blocks, per task id (Ratio)
system.cpu.icache.tags.tagAccesses         1441536122                       # Number of tag accesses (Count)
system.cpu.icache.tags.dataAccesses        1441536122                       # Number of data accesses (Count)
system.cpu.icache.tags.power_state.pwrStateResidencyTicks::UNDEFINED 808718251185                       # Cumulative time (in ticks) in various power states (Tick)
system.cpu.interrupts.clk_domain.clock           5520                       # Clock period in ticks (Tick)
system.cpu.mmu.dtb.rdAccesses               176177688                       # TLB accesses on read requests (Count)
system.cpu.mmu.dtb.wrAccesses               128124755                       # TLB accesses on write requests (Count)
system.cpu.mmu.dtb.rdMisses                       179                       # TLB misses on read requests (Count)
system.cpu.mmu.dtb.wrMisses                       160                       # TLB misses on write requests (Count)
system.cpu.mmu.dtb.walker.power_state.pwrStateResidencyTicks::UNDEFINED 808718251185                       # Cumulative time (in ticks) in various power states (Tick)
system.cpu.mmu.itb.rdAccesses                       0                       # TLB accesses on read requests (Count)
system.cpu.mmu.itb.wrAccesses               720767474                       # TLB accesses on write requests (Count)
system.cpu.mmu.itb.rdMisses                         0                       # TLB misses on read requests (Count)
system.cpu.mmu.itb.wrMisses                       185                       # TLB misses on write requests (Count)
system.cpu.mmu.itb.walker.power_state.pwrStateResidencyTicks::UNDEFINED 808718251185                       # Cumulative time (in ticks) in various power states (Tick)
system.cpu.power_state.pwrStateResidencyTicks::ON 808718251185                       # Cumulative time (in ticks) in various power states (Tick)
system.cpu.thread_0.numInsts                        0                       # Number of Instructions committed (Count)
system.cpu.thread_0.numOps                          0                       # Number of Ops committed (Count)
system.cpu.thread_0.numMemRefs                      0                       # Number of Memory References (Count)
system.cpu.workload.numSyscalls                    38                       # Number of system calls (Count)
system.l2bus.transDist::ReadResp              6098099                       # Transaction distribution (Count)
system.l2bus.transDist::WritebackDirty       12193513                       # Transaction distribution (Count)
system.l2bus.transDist::CleanEvict               4089                       # Transaction distribution (Count)
system.l2bus.transDist::ReadExReq             6096373                       # Transaction distribution (Count)
system.l2bus.transDist::ReadExResp            6096373                       # Transaction distribution (Count)
system.l2bus.transDist::ReadSharedReq         6098099                       # Transaction distribution (Count)
system.l2bus.pktCount_system.cpu.icache.mem_side_port::system.l2cache.cpu_side_port         3281                       # Packet count per connected requestor and responder (Count)
system.l2bus.pktCount_system.cpu.dcache.mem_side_port::system.l2cache.cpu_side_port     36579118                       # Packet count per connected requestor and responder (Count)
system.l2bus.pktCount::total                 36582399                       # Packet count per connected requestor and responder (Count)
system.l2bus.pktSize_system.cpu.icache.mem_side_port::system.l2cache.cpu_side_port        80768                       # Cumulative packet size per connected requestor and responder (Byte)
system.l2bus.pktSize_system.cpu.dcache.mem_side_port::system.l2cache.cpu_side_port   1560616000                       # Cumulative packet size per connected requestor and responder (Byte)
system.l2bus.pktSize::total                1560696768                       # Cumulative packet size per connected requestor and responder (Byte)
system.l2bus.snoops                              4147                       # Total snoops (Count)
system.l2bus.snoopTraffic                      134272                       # Total snoop traffic (Byte)
system.l2bus.snoopFanout::samples            12198619                       # Request fanout histogram (Count)
system.l2bus.snoopFanout::mean               0.000040                       # Request fanout histogram (Count)
system.l2bus.snoopFanout::stdev              0.006286                       # Request fanout histogram (Count)
system.l2bus.snoopFanout::underflows                0      0.00%      0.00% # Request fanout histogram (Count)
system.l2bus.snoopFanout::0                  12198137    100.00%    100.00% # Request fanout histogram (Count)
system.l2bus.snoopFanout::1                       482      0.00%    100.00% # Request fanout histogram (Count)
system.l2bus.snoopFanout::2                         0      0.00%    100.00% # Request fanout histogram (Count)
system.l2bus.snoopFanout::overflows                 0      0.00%    100.00% # Request fanout histogram (Count)
system.l2bus.snoopFanout::min_value                 0                       # Request fanout histogram (Count)
system.l2bus.snoopFanout::max_value                 1                       # Request fanout histogram (Count)
system.l2bus.snoopFanout::total              12198619                       # Request fanout histogram (Count)
system.l2bus.power_state.pwrStateResidencyTicks::UNDEFINED 808718251185                       # Cumulative time (in ticks) in various power states (Tick)
system.l2bus.reqLayer0.occupancy          16825911165                       # Layer occupancy (ticks) (Tick)
system.l2bus.reqLayer0.utilization                0.0                       # Layer utilization (Ratio)
system.l2bus.respLayer0.occupancy             1306170                       # Layer occupancy (ticks) (Tick)
system.l2bus.respLayer0.utilization               0.0                       # Layer utilization (Ratio)
system.l2bus.respLayer1.occupancy         12619972350                       # Layer occupancy (ticks) (Tick)
system.l2bus.respLayer1.utilization               0.0                       # Layer utilization (Ratio)
system.l2bus.snoop_filter.totRequests        24387927                       # Total number of requests made to the snoop filter. (Count)
system.l2bus.snoop_filter.hitSingleRequests     12193455                       # Number of requests hitting in the snoop filter with a single holder of the requested data. (Count)
system.l2bus.snoop_filter.hitMultiRequests            0                       # Number of requests hitting in the snoop filter with multiple (>1) holders of the requested data. (Count)
system.l2bus.snoop_filter.totSnoops               482                       # Total number of snoops made to the snoop filter. (Count)
system.l2bus.snoop_filter.hitSingleSnoops          482                       # Number of snoops hitting in the snoop filter with a single holder of the requested data. (Count)
system.l2bus.snoop_filter.hitMultiSnoops            0                       # Number of snoops hitting in the snoop filter with multiple (>1) holders of the requested data. (Count)
system.l2cache.demandHits::cpu.inst                47                       # number of demand (read+write) hits (Count)
system.l2cache.demandHits::cpu.data          12186183                       # number of demand (read+write) hits (Count)
system.l2cache.demandHits::total             12186230                       # number of demand (read+write) hits (Count)
system.l2cache.overallHits::cpu.inst               47                       # number of overall hits (Count)
system.l2cache.overallHits::cpu.data         12186183                       # number of overall hits (Count)
system.l2cache.overallHits::total            12186230                       # number of overall hits (Count)
system.l2cache.demandMisses::cpu.inst            1215                       # number of demand (read+write) misses (Count)
system.l2cache.demandMisses::cpu.data            7027                       # number of demand (read+write) misses (Count)
system.l2cache.demandMisses::total               8242                       # number of demand (read+write) misses (Count)
system.l2cache.overallMisses::cpu.inst           1215                       # number of overall misses (Count)
system.l2cache.overallMisses::cpu.data           7027                       # number of overall misses (Count)
system.l2cache.overallMisses::total              8242                       # number of overall misses (Count)
system.l2cache.demandMissLatency::cpu.inst     77733330                       # number of demand (read+write) miss ticks (Tick)
system.l2cache.demandMissLatency::cpu.data    431956560                       # number of demand (read+write) miss ticks (Tick)
system.l2cache.demandMissLatency::total     509689890                       # number of demand (read+write) miss ticks (Tick)
system.l2cache.overallMissLatency::cpu.inst     77733330                       # number of overall miss ticks (Tick)
system.l2cache.overallMissLatency::cpu.data    431956560                       # number of overall miss ticks (Tick)
system.l2cache.overallMissLatency::total    509689890                       # number of overall miss ticks (Tick)
system.l2cache.demandAccesses::cpu.inst          1262                       # number of demand (read+write) accesses (Count)
system.l2cache.demandAccesses::cpu.data      12193210                       # number of demand (read+write) accesses (Count)
system.l2cache.demandAccesses::total         12194472                       # number of demand (read+write) accesses (Count)
system.l2cache.overallAccesses::cpu.inst         1262                       # number of overall (read+write) accesses (Count)
system.l2cache.overallAccesses::cpu.data     12193210                       # number of overall (read+write) accesses (Count)
system.l2cache.overallAccesses::total        12194472                       # number of overall (read+write) accesses (Count)
system.l2cache.demandMissRate::cpu.inst      0.962758                       # miss rate for demand accesses (Ratio)
system.l2cache.demandMissRate::cpu.data      0.000576                       # miss rate for demand accesses (Ratio)
system.l2cache.demandMissRate::total         0.000676                       # miss rate for demand accesses (Ratio)
system.l2cache.overallMissRate::cpu.inst     0.962758                       # miss rate for overall accesses (Ratio)
system.l2cache.overallMissRate::cpu.data     0.000576                       # miss rate for overall accesses (Ratio)
system.l2cache.overallMissRate::total        0.000676                       # miss rate for overall accesses (Ratio)
system.l2cache.demandAvgMissLatency::cpu.inst 63978.049383                       # average overall miss latency in ticks ((Tick/Count))
system.l2cache.demandAvgMissLatency::cpu.data 61470.977658                       # average overall miss latency in ticks ((Tick/Count))
system.l2cache.demandAvgMissLatency::total 61840.559330                       # average overall miss latency in ticks ((Tick/Count))
system.l2cache.overallAvgMissLatency::cpu.inst 63978.049383                       # average overall miss latency ((Tick/Count))
system.l2cache.overallAvgMissLatency::cpu.data 61470.977658                       # average overall miss latency ((Tick/Count))
system.l2cache.overallAvgMissLatency::total 61840.559330                       # average overall miss latency ((Tick/Count))
system.l2cache.blockedCycles::no_mshrs              0                       # number of cycles access was blocked (Cycle)
system.l2cache.blockedCycles::no_targets            0                       # number of cycles access was blocked (Cycle)
system.l2cache.blockedCauses::no_mshrs              0                       # number of times access was blocked (Count)
system.l2cache.blockedCauses::no_targets            0                       # number of times access was blocked (Count)
system.l2cache.avgBlocked::no_mshrs               nan                       # average number of cycles each access was blocked ((Cycle/Count))
system.l2cache.avgBlocked::no_targets             nan                       # average number of cycles each access was blocked ((Cycle/Count))
system.l2cache.writebacks::writebacks            2098                       # number of writebacks (Count)
system.l2cache.writebacks::total                 2098                       # number of writebacks (Count)
system.l2cache.demandMshrMisses::cpu.inst         1215                       # number of demand (read+write) MSHR misses (Count)
system.l2cache.demandMshrMisses::cpu.data         7027                       # number of demand (read+write) MSHR misses (Count)
system.l2cache.demandMshrMisses::total           8242                       # number of demand (read+write) MSHR misses (Count)
system.l2cache.overallMshrMisses::cpu.inst         1215                       # number of overall MSHR misses (Count)
system.l2cache.overallMshrMisses::cpu.data         7027                       # number of overall MSHR misses (Count)
system.l2cache.overallMshrMisses::total          8242                       # number of overall MSHR misses (Count)
system.l2cache.demandMshrMissLatency::cpu.inst     69349830                       # number of demand (read+write) MSHR miss ticks (Tick)
system.l2cache.demandMshrMissLatency::cpu.data    383470260                       # number of demand (read+write) MSHR miss ticks (Tick)
system.l2cache.demandMshrMissLatency::total    452820090                       # number of demand (read+write) MSHR miss ticks (Tick)
system.l2cache.overallMshrMissLatency::cpu.inst     69349830                       # number of overall MSHR miss ticks (Tick)
system.l2cache.overallMshrMissLatency::cpu.data    383470260                       # number of overall MSHR miss ticks (Tick)
system.l2cache.overallMshrMissLatency::total    452820090                       # number of overall MSHR miss ticks (Tick)
system.l2cache.demandMshrMissRate::cpu.inst     0.962758                       # mshr miss ratio for demand accesses (Ratio)
system.l2cache.demandMshrMissRate::cpu.data     0.000576                       # mshr miss ratio for demand accesses (Ratio)
system.l2cache.demandMshrMissRate::total     0.000676                       # mshr miss ratio for demand accesses (Ratio)
system.l2cache.overallMshrMissRate::cpu.inst     0.962758                       # mshr miss ratio for overall accesses (Ratio)
system.l2cache.overallMshrMissRate::cpu.data     0.000576                       # mshr miss ratio for overall accesses (Ratio)
system.l2cache.overallMshrMissRate::total     0.000676                       # mshr miss ratio for overall accesses (Ratio)
system.l2cache.demandAvgMshrMissLatency::cpu.inst 57078.049383                       # average overall mshr miss latency ((Tick/Count))
system.l2cache.demandAvgMshrMissLatency::cpu.data 54570.977658                       # average overall mshr miss latency ((Tick/Count))
system.l2cache.demandAvgMshrMissLatency::total 54940.559330                       # average overall mshr miss latency ((Tick/Count))
system.l2cache.overallAvgMshrMissLatency::cpu.inst 57078.049383                       # average overall mshr miss latency ((Tick/Count))
system.l2cache.overallAvgMshrMissLatency::cpu.data 54570.977658                       # average overall mshr miss latency ((Tick/Count))
system.l2cache.overallAvgMshrMissLatency::total 54940.559330                       # average overall mshr miss latency ((Tick/Count))
system.l2cache.replacements                      4147                       # number of replacements (Count)
system.l2cache.CleanEvict.mshrMisses::writebacks          224                       # number of CleanEvict MSHR misses (Count)
system.l2cache.CleanEvict.mshrMisses::total          224                       # number of CleanEvict MSHR misses (Count)
system.l2cache.CleanEvict.mshrMissRate::writebacks          inf                       # mshr miss rate for CleanEvict accesses (Ratio)
system.l2cache.CleanEvict.mshrMissRate::total          inf                       # mshr miss rate for CleanEvict accesses (Ratio)
system.l2cache.ReadExReq.hits::cpu.data       6091278                       # number of ReadExReq hits (Count)
system.l2cache.ReadExReq.hits::total          6091278                       # number of ReadExReq hits (Count)
system.l2cache.ReadExReq.misses::cpu.data         5095                       # number of ReadExReq misses (Count)
system.l2cache.ReadExReq.misses::total           5095                       # number of ReadExReq misses (Count)
system.l2cache.ReadExReq.missLatency::cpu.data    323864955                       # number of ReadExReq miss ticks (Tick)
system.l2cache.ReadExReq.missLatency::total    323864955                       # number of ReadExReq miss ticks (Tick)
system.l2cache.ReadExReq.accesses::cpu.data      6096373                       # number of ReadExReq accesses(hits+misses) (Count)
system.l2cache.ReadExReq.accesses::total      6096373                       # number of ReadExReq accesses(hits+misses) (Count)
system.l2cache.ReadExReq.missRate::cpu.data     0.000836                       # miss rate for ReadExReq accesses (Ratio)
system.l2cache.ReadExReq.missRate::total     0.000836                       # miss rate for ReadExReq accesses (Ratio)
system.l2cache.ReadExReq.avgMissLatency::cpu.data 63565.251227                       # average ReadExReq miss latency ((Tick/Count))
system.l2cache.ReadExReq.avgMissLatency::total 63565.251227                       # average ReadExReq miss latency ((Tick/Count))
system.l2cache.ReadExReq.mshrMisses::cpu.data         5095                       # number of ReadExReq MSHR misses (Count)
system.l2cache.ReadExReq.mshrMisses::total         5095                       # number of ReadExReq MSHR misses (Count)
system.l2cache.ReadExReq.mshrMissLatency::cpu.data    288709455                       # number of ReadExReq MSHR miss ticks (Tick)
system.l2cache.ReadExReq.mshrMissLatency::total    288709455                       # number of ReadExReq MSHR miss ticks (Tick)
system.l2cache.ReadExReq.mshrMissRate::cpu.data     0.000836                       # mshr miss rate for ReadExReq accesses (Ratio)
system.l2cache.ReadExReq.mshrMissRate::total     0.000836                       # mshr miss rate for ReadExReq accesses (Ratio)
system.l2cache.ReadExReq.avgMshrMissLatency::cpu.data 56665.251227                       # average ReadExReq mshr miss latency ((Tick/Count))
system.l2cache.ReadExReq.avgMshrMissLatency::total 56665.251227                       # average ReadExReq mshr miss latency ((Tick/Count))
system.l2cache.ReadSharedReq.hits::cpu.inst           47                       # number of ReadSharedReq hits (Count)
system.l2cache.ReadSharedReq.hits::cpu.data      6094905                       # number of ReadSharedReq hits (Count)
system.l2cache.ReadSharedReq.hits::total      6094952                       # number of ReadSharedReq hits (Count)
system.l2cache.ReadSharedReq.misses::cpu.inst         1215                       # number of ReadSharedReq misses (Count)
system.l2cache.ReadSharedReq.misses::cpu.data         1932                       # number of ReadSharedReq misses (Count)
system.l2cache.ReadSharedReq.misses::total         3147                       # number of ReadSharedReq misses (Count)
system.l2cache.ReadSharedReq.missLatency::cpu.inst     77733330                       # number of ReadSharedReq miss ticks (Tick)
system.l2cache.ReadSharedReq.missLatency::cpu.data    108091605                       # number of ReadSharedReq miss ticks (Tick)
system.l2cache.ReadSharedReq.missLatency::total    185824935                       # number of ReadSharedReq miss ticks (Tick)
system.l2cache.ReadSharedReq.accesses::cpu.inst         1262                       # number of ReadSharedReq accesses(hits+misses) (Count)
system.l2cache.ReadSharedReq.accesses::cpu.data      6096837                       # number of ReadSharedReq accesses(hits+misses) (Count)
system.l2cache.ReadSharedReq.accesses::total      6098099                       # number of ReadSharedReq accesses(hits+misses) (Count)
system.l2cache.ReadSharedReq.missRate::cpu.inst     0.962758                       # miss rate for ReadSharedReq accesses (Ratio)
system.l2cache.ReadSharedReq.missRate::cpu.data     0.000317                       # miss rate for ReadSharedReq accesses (Ratio)
system.l2cache.ReadSharedReq.missRate::total     0.000516                       # miss rate for ReadSharedReq accesses (Ratio)
system.l2cache.ReadSharedReq.avgMissLatency::cpu.inst 63978.049383                       # average ReadSharedReq miss latency ((Tick/Count))
system.l2cache.ReadSharedReq.avgMissLatency::cpu.data 55948.035714                       # average ReadSharedReq miss latency ((Tick/Count))
system.l2cache.ReadSharedReq.avgMissLatency::total 59048.279314                       # average ReadSharedReq miss latency ((Tick/Count))
system.l2cache.ReadSharedReq.mshrMisses::cpu.inst         1215                       # number of ReadSharedReq MSHR misses (Count)
system.l2cache.ReadSharedReq.mshrMisses::cpu.data         1932                       # number of ReadSharedReq MSHR misses (Count)
system.l2cache.ReadSharedReq.mshrMisses::total         3147                       # number of ReadSharedReq MSHR misses (Count)
system.l2cache.ReadSharedReq.mshrMissLatency::cpu.inst     69349830                       # number of ReadSharedReq MSHR miss ticks (Tick)
system.l2cache.ReadSharedReq.mshrMissLatency::cpu.data     94760805                       # number of ReadSharedReq MSHR miss ticks (Tick)
system.l2cache.ReadSharedReq.mshrMissLatency::total    164110635                       # number of ReadSharedReq MSHR miss ticks (Tick)
system.l2cache.ReadSharedReq.mshrMissRate::cpu.inst     0.962758                       # mshr miss rate for ReadSharedReq accesses (Ratio)
system.l2cache.ReadSharedReq.mshrMissRate::cpu.data     0.000317                       # mshr miss rate for ReadSharedReq accesses (Ratio)
system.l2cache.ReadSharedReq.mshrMissRate::total     0.000516                       # mshr miss rate for ReadSharedReq accesses (Ratio)
system.l2cache.ReadSharedReq.avgMshrMissLatency::cpu.inst 57078.049383                       # average ReadSharedReq mshr miss latency ((Tick/Count))
system.l2cache.ReadSharedReq.avgMshrMissLatency::cpu.data 49048.035714                       # average ReadSharedReq mshr miss latency ((Tick/Count))
system.l2cache.ReadSharedReq.avgMshrMissLatency::total 52148.279314                       # average ReadSharedReq mshr miss latency ((Tick/Count))
system.l2cache.WritebackDirty.hits::writebacks     12191415                       # number of WritebackDirty hits (Count)
system.l2cache.WritebackDirty.hits::total     12191415                       # number of WritebackDirty hits (Count)
system.l2cache.WritebackDirty.accesses::writebacks     12191415                       # number of WritebackDirty accesses(hits+misses) (Count)
system.l2cache.WritebackDirty.accesses::total     12191415                       # number of WritebackDirty accesses(hits+misses) (Count)
system.l2cache.power_state.pwrStateResidencyTicks::UNDEFINED 808718251185                       # Cumulative time (in ticks) in various power states (Tick)
system.l2cache.tags.tagsInUse             4085.813789                       # Average ticks per tags in use ((Tick/Count))
system.l2cache.tags.totalRefs                24387703                       # Total number of references to valid blocks. (Count)
system.l2cache.tags.sampledRefs                  8243                       # Sample count of references to valid blocks. (Count)
system.l2cache.tags.avgRefs               2958.595536                       # Average number of references to valid blocks. ((Count/Count))
system.l2cache.tags.warmupTick                  69345                       # The tick when the warmup percentage was hit. (Tick)
system.l2cache.tags.occupancies::writebacks     0.999533                       # Average occupied blocks per tick, per requestor ((Count/Tick))
system.l2cache.tags.occupancies::cpu.inst   161.091237                       # Average occupied blocks per tick, per requestor ((Count/Tick))
system.l2cache.tags.occupancies::cpu.data  3923.723019                       # Average occupied blocks per tick, per requestor ((Count/Tick))
system.l2cache.tags.avgOccs::writebacks      0.000244                       # Average percentage of cache occupancy ((Ratio/Tick))
system.l2cache.tags.avgOccs::cpu.inst        0.039329                       # Average percentage of cache occupancy ((Ratio/Tick))
system.l2cache.tags.avgOccs::cpu.data        0.957940                       # Average percentage of cache occupancy ((Ratio/Tick))
system.l2cache.tags.avgOccs::total           0.997513                       # Average percentage of cache occupancy ((Ratio/Tick))
system.l2cache.tags.occupanciesTaskId::1024         4096                       # Occupied blocks per task id (Count)
system.l2cache.tags.ageTaskId_1024::0             120                       # Occupied blocks per task id, per block age (Count)
system.l2cache.tags.ageTaskId_1024::1             333                       # Occupied blocks per task id, per block age (Count)
system.l2cache.tags.ageTaskId_1024::4            3643                       # Occupied blocks per task id, per block age (Count)
system.l2cache.tags.ratioOccsTaskId::1024            1                       # Ratio of occupied blocks and all blocks, per task id (Ratio)
system.l2cache.tags.tagAccesses             195111659                       # Number of tag accesses (Count)
system.l2cache.tags.dataAccesses            195111659                       # Number of data accesses (Count)
system.l2cache.tags.power_state.pwrStateResidencyTicks::UNDEFINED 808718251185                       # Cumulative time (in ticks) in various power states (Tick)
system.mem_ctrl.avgPriority_writebacks::samples      1002.00                       # Average QoS priority value for accepted requests (Count)
system.mem_ctrl.avgPriority_cpu.inst::samples      1215.00                       # Average QoS priority value for accepted requests (Count)
system.mem_ctrl.avgPriority_cpu.data::samples      5852.00                       # Average QoS priority value for accepted requests (Count)
system.mem_ctrl.priorityMinLatency       0.000000017492                       # per QoS priority minimum request to response latency (Second)
system.mem_ctrl.priorityMaxLatency       0.827371009022                       # per QoS priority maximum request to response latency (Second)
system.mem_ctrl.numReadWriteTurnArounds            55                       # Number of turnarounds from READ to WRITE (Count)
system.mem_ctrl.numWriteReadTurnArounds            55                       # Number of turnarounds from WRITE to READ (Count)
system.mem_ctrl.numStayReadState               120074                       # Number of times bus staying in READ state (Count)
system.mem_ctrl.numStayWriteState                 898                       # Number of times bus staying in WRITE state (Count)
system.mem_ctrl.readReqs                         8242                       # Number of read requests accepted (Count)
system.mem_ctrl.writeReqs                        2098                       # Number of write requests accepted (Count)
system.mem_ctrl.readBursts                       8242                       # Number of controller read bursts, including those serviced by the write queue (Count)
system.mem_ctrl.writeBursts                      2098                       # Number of controller write bursts, including those merged in the write queue (Count)
system.mem_ctrl.servicedByWrQ                    1175                       # Number of controller read bursts serviced by the write queue (Count)
system.mem_ctrl.mergedWrBursts                   1096                       # Number of controller write bursts merged with an existing one (Count)
system.mem_ctrl.neitherReadNorWriteReqs             0                       # Number of requests that are neither read nor write (Count)
system.mem_ctrl.avgRdQLen                        1.00                       # Average read queue length when enqueuing ((Count/Tick))
system.mem_ctrl.avgWrQLen                       55.83                       # Average write queue length when enqueuing ((Count/Tick))
system.mem_ctrl.numRdRetry                          0                       # Number of times read queue was full causing retry (Count)
system.mem_ctrl.numWrRetry                          0                       # Number of times write queue was full causing retry (Count)
system.mem_ctrl.readPktSize::0                      0                       # Read request sizes (log2) (Count)
system.mem_ctrl.readPktSize::1                      0                       # Read request sizes (log2) (Count)
system.mem_ctrl.readPktSize::2                      0                       # Read request sizes (log2) (Count)
system.mem_ctrl.readPktSize::3                      0                       # Read request sizes (log2) (Count)
system.mem_ctrl.readPktSize::4                      0                       # Read request sizes (log2) (Count)
system.mem_ctrl.readPktSize::5                      0                       # Read request sizes (log2) (Count)
system.mem_ctrl.readPktSize::6                   8242                       # Read request sizes (log2) (Count)
system.mem_ctrl.writePktSize::0                     0                       # Write request sizes (log2) (Count)
system.mem_ctrl.writePktSize::1                     0                       # Write request sizes (log2) (Count)
system.mem_ctrl.writePktSize::2                     0                       # Write request sizes (log2) (Count)
system.mem_ctrl.writePktSize::3                     0                       # Write request sizes (log2) (Count)
system.mem_ctrl.writePktSize::4                     0                       # Write request sizes (log2) (Count)
system.mem_ctrl.writePktSize::5                     0                       # Write request sizes (log2) (Count)
system.mem_ctrl.writePktSize::6                  2098                       # Write request sizes (log2) (Count)
system.mem_ctrl.rdQLenPdf::0                     7066                       # What read queue length does an incoming req see (Count)
system.mem_ctrl.rdQLenPdf::1                        1                       # What read queue length does an incoming req see (Count)
system.mem_ctrl.rdQLenPdf::2                        0                       # What read queue length does an incoming req see (Count)
system.mem_ctrl.rdQLenPdf::3                        0                       # What read queue length does an incoming req see (Count)
system.mem_ctrl.rdQLenPdf::4                        0                       # What read queue length does an incoming req see (Count)
system.mem_ctrl.rdQLenPdf::5                        0                       # What read queue length does an incoming req see (Count)
system.mem_ctrl.rdQLenPdf::6                        0                       # What read queue length does an incoming req see (Count)
system.mem_ctrl.rdQLenPdf::7                        0                       # What read queue length does an incoming req see (Count)
system.mem_ctrl.rdQLenPdf::8                        0                       # What read queue length does an incoming req see (Count)
system.mem_ctrl.rdQLenPdf::9                        0                       # What read queue length does an incoming req see (Count)
system.mem_ctrl.rdQLenPdf::10                       0                       # What read queue length does an incoming req see (Count)
system.mem_ctrl.rdQLenPdf::11                       0                       # What read queue length does an incoming req see (Count)
system.mem_ctrl.rdQLenPdf::12                       0                       # What read queue length does an incoming req see (Count)
system.mem_ctrl.rdQLenPdf::13                       0                       # What read queue length does an incoming req see (Count)
system.mem_ctrl.rdQLenPdf::14                       0                       # What read queue length does an incoming req see (Count)
system.mem_ctrl.rdQLenPdf::15                       0                       # What read queue length does an incoming req see (Count)
system.mem_ctrl.rdQLenPdf::16                       0                       # What read queue length does an incoming req see (Count)
system.mem_ctrl.rdQLenPdf::17                       0                       # What read queue length does an incoming req see (Count)
system.mem_ctrl.rdQLenPdf::18                       0                       # What read queue length does an incoming req see (Count)
system.mem_ctrl.rdQLenPdf::19                       0                       # What read queue length does an incoming req see (Count)
system.mem_ctrl.rdQLenPdf::20                       0                       # What read queue length does an incoming req see (Count)
system.mem_ctrl.rdQLenPdf::21                       0                       # What read queue length does an incoming req see (Count)
system.mem_ctrl.rdQLenPdf::22                       0                       # What read queue length does an incoming req see (Count)
system.mem_ctrl.rdQLenPdf::23                       0                       # What read queue length does an incoming req see (Count)
system.mem_ctrl.rdQLenPdf::24                       0                       # What read queue length does an incoming req see (Count)
system.mem_ctrl.rdQLenPdf::25                       0                       # What read queue length does an incoming req see (Count)
system.mem_ctrl.rdQLenPdf::26                       0                       # What read queue length does an incoming req see (Count)
system.mem_ctrl.rdQLenPdf::27                       0                       # What read queue length does an incoming req see (Count)
system.mem_ctrl.rdQLenPdf::28                       0                       # What read queue length does an incoming req see (Count)
system.mem_ctrl.rdQLenPdf::29                       0                       # What read queue length does an incoming req see (Count)
system.mem_ctrl.rdQLenPdf::30                       0                       # What read queue length does an incoming req see (Count)
system.mem_ctrl.rdQLenPdf::31                       0                       # What read queue length does an incoming req see (Count)
system.mem_ctrl.rdQLenPdf::32                       0                       # What read queue length does an incoming req see (Count)
system.mem_ctrl.rdQLenPdf::33                       0                       # What read queue length does an incoming req see (Count)
system.mem_ctrl.rdQLenPdf::34                       0                       # What read queue length does an incoming req see (Count)
system.mem_ctrl.rdQLenPdf::35                       0                       # What read queue length does an incoming req see (Count)
system.mem_ctrl.rdQLenPdf::36                       0                       # What read queue length does an incoming req see (Count)
system.mem_ctrl.rdQLenPdf::37                       0                       # What read queue length does an incoming req see (Count)
system.mem_ctrl.rdQLenPdf::38                       0                       # What read queue length does an incoming req see (Count)
system.mem_ctrl.rdQLenPdf::39                       0                       # What read queue length does an incoming req see (Count)
system.mem_ctrl.rdQLenPdf::40                       0                       # What read queue length does an incoming req see (Count)
system.mem_ctrl.rdQLenPdf::41                       0                       # What read queue length does an incoming req see (Count)
system.mem_ctrl.rdQLenPdf::42                       0                       # What read queue length does an incoming req see (Count)
system.mem_ctrl.rdQLenPdf::43                       0                       # What read queue length does an incoming req see (Count)
system.mem_ctrl.rdQLenPdf::44                       0                       # What read queue length does an incoming req see (Count)
system.mem_ctrl.rdQLenPdf::45                       0                       # What read queue length does an incoming req see (Count)
system.mem_ctrl.rdQLenPdf::46                       0                       # What read queue length does an incoming req see (Count)
system.mem_ctrl.rdQLenPdf::47                       0                       # What read queue length does an incoming req see (Count)
system.mem_ctrl.rdQLenPdf::48                       0                       # What read queue length does an incoming req see (Count)
system.mem_ctrl.rdQLenPdf::49                       0                       # What read queue length does an incoming req see (Count)
system.mem_ctrl.rdQLenPdf::50                       0                       # What read queue length does an incoming req see (Count)
system.mem_ctrl.rdQLenPdf::51                       0                       # What read queue length does an incoming req see (Count)
system.mem_ctrl.rdQLenPdf::52                       0                       # What read queue length does an incoming req see (Count)
system.mem_ctrl.rdQLenPdf::53                       0                       # What read queue length does an incoming req see (Count)
system.mem_ctrl.rdQLenPdf::54                       0                       # What read queue length does an incoming req see (Count)
system.mem_ctrl.rdQLenPdf::55                       0                       # What read queue length does an incoming req see (Count)
system.mem_ctrl.rdQLenPdf::56                       0                       # What read queue length does an incoming req see (Count)
system.mem_ctrl.rdQLenPdf::57                       0                       # What read queue length does an incoming req see (Count)
system.mem_ctrl.rdQLenPdf::58                       0                       # What read queue length does an incoming req see (Count)
system.mem_ctrl.rdQLenPdf::59                       0                       # What read queue length does an incoming req see (Count)
system.mem_ctrl.rdQLenPdf::60                       0                       # What read queue length does an incoming req see (Count)
system.mem_ctrl.rdQLenPdf::61                       0                       # What read queue length does an incoming req see (Count)
system.mem_ctrl.rdQLenPdf::62                       0                       # What read queue length does an incoming req see (Count)
system.mem_ctrl.rdQLenPdf::63                       0                       # What read queue length does an incoming req see (Count)
system.mem_ctrl.wrQLenPdf::0                        1                       # What write queue length does an incoming req see (Count)
system.mem_ctrl.wrQLenPdf::1                        1                       # What write queue length does an incoming req see (Count)
system.mem_ctrl.wrQLenPdf::2                        1                       # What write queue length does an incoming req see (Count)
[...]
system.mem_ctrl.wrPerTurnAround::19                 2      3.64%    100.00% # Writes before turning the bus around for reads (Count)
system.mem_ctrl.wrPerTurnAround::total             55                       # Writes before turning the bus around for reads (Count)
system.mem_ctrl.bytesReadWrQ                    75200                       # Total number of bytes read from write queue (Byte)
system.mem_ctrl.bytesReadSys                   527488                       # Total read bytes from the system interface side (Byte)
system.mem_ctrl.bytesWrittenSys                134272                       # Total written bytes from the system interface side (Byte)
system.mem_ctrl.avgRdBWSys               652251.88033914                       # Average system read bandwidth in Byte/s ((Byte/Second))
system.mem_ctrl.avgWrBWSys               166030.62908900                       # Average system write bandwidth in Byte/s ((Byte/Second))
system.mem_ctrl.totGap                   808718239455                       # Total gap between requests (Tick)
system.mem_ctrl.avgGap                    78212595.69                       # Average gap between requests ((Tick/Count))
system.mem_ctrl.requestorReadBytes::cpu.inst        77760                       # Per-requestor bytes read from memory (Byte)
system.mem_ctrl.requestorReadBytes::cpu.data       374528                       # Per-requestor bytes read from memory (Byte)
system.mem_ctrl.requestorWriteBytes::writebacks        60992                       # Per-requestor bytes write to memory (Byte)
system.mem_ctrl.requestorReadRate::cpu.inst 96152.151736478932                       # Per-requestor bytes read from memory rate ((Byte/Second))
system.mem_ctrl.requestorReadRate::cpu.data 463113.079804012086                       # Per-requestor bytes read from memory rate ((Byte/Second))
system.mem_ctrl.requestorWriteRate::writebacks 75418.107493715579                       # Per-requestor bytes write to memory rate ((Byte/Second))
system.mem_ctrl.requestorReadAccesses::cpu.inst         1215                       # Per-requestor read serviced memory accesses (Count)
system.mem_ctrl.requestorReadAccesses::cpu.data         7027                       # Per-requestor read serviced memory accesses (Count)
system.mem_ctrl.requestorWriteAccesses::writebacks         2098                       # Per-requestor write serviced memory accesses (Count)
system.mem_ctrl.requestorReadTotalLat::cpu.inst     31924186                       # Per-requestor read total memory access latency (Tick)
system.mem_ctrl.requestorReadTotalLat::cpu.data    178896509                       # Per-requestor read total memory access latency (Tick)
system.mem_ctrl.requestorWriteTotalLat::writebacks 44249531725609                       # Per-requestor write total memory access latency (Tick)
system.mem_ctrl.requestorReadAvgLat::cpu.inst     26275.05                       # Per-requestor read average memory access latency ((Tick/Count))
system.mem_ctrl.requestorReadAvgLat::cpu.data     25458.45                       # Per-requestor read average memory access latency ((Tick/Count))
system.mem_ctrl.requestorWriteAvgLat::writebacks 21091292528.89                       # Per-requestor write average memory access latency ((Tick/Count))
system.mem_ctrl.dram.bytesRead::cpu.inst        77760                       # Number of bytes read from this memory (Byte)
system.mem_ctrl.dram.bytesRead::cpu.data       449728                       # Number of bytes read from this memory (Byte)
system.mem_ctrl.dram.bytesRead::total          527488                       # Number of bytes read from this memory (Byte)
system.mem_ctrl.dram.bytesInstRead::cpu.inst        77760                       # Number of instructions bytes read from this memory (Byte)
system.mem_ctrl.dram.bytesInstRead::total        77760                       # Number of instructions bytes read from this memory (Byte)
system.mem_ctrl.dram.bytesWritten::writebacks       134272                       # Number of bytes written to this memory (Byte)
system.mem_ctrl.dram.bytesWritten::total       134272                       # Number of bytes written to this memory (Byte)
system.mem_ctrl.dram.numReads::cpu.inst          1215                       # Number of read requests responded to by this memory (Count)
system.mem_ctrl.dram.numReads::cpu.data          7027                       # Number of read requests responded to by this memory (Count)
system.mem_ctrl.dram.numReads::total             8242                       # Number of read requests responded to by this memory (Count)
system.mem_ctrl.dram.numWrites::writebacks         2098                       # Number of write requests responded to by this memory (Count)
system.mem_ctrl.dram.numWrites::total            2098                       # Number of write requests responded to by this memory (Count)
system.mem_ctrl.dram.bwRead::cpu.inst           96152                       # Total read bandwidth from this memory ((Byte/Second))
system.mem_ctrl.dram.bwRead::cpu.data          556100                       # Total read bandwidth from this memory ((Byte/Second))
system.mem_ctrl.dram.bwRead::total             652252                       # Total read bandwidth from this memory ((Byte/Second))
system.mem_ctrl.dram.bwInstRead::cpu.inst        96152                       # Instruction read bandwidth from this memory ((Byte/Second))
system.mem_ctrl.dram.bwInstRead::total          96152                       # Instruction read bandwidth from this memory ((Byte/Second))
system.mem_ctrl.dram.bwWrite::writebacks       166031                       # Write bandwidth from this memory ((Byte/Second))
system.mem_ctrl.dram.bwWrite::total            166031                       # Write bandwidth from this memory ((Byte/Second))
system.mem_ctrl.dram.bwTotal::writebacks       166031                       # Total bandwidth to/from this memory ((Byte/Second))
system.mem_ctrl.dram.bwTotal::cpu.inst          96152                       # Total bandwidth to/from this memory ((Byte/Second))
system.mem_ctrl.dram.bwTotal::cpu.data         556100                       # Total bandwidth to/from this memory ((Byte/Second))
system.mem_ctrl.dram.bwTotal::total            818283                       # Total bandwidth to/from this memory ((Byte/Second))
system.mem_ctrl.dram.readBursts                  7067                       # Number of DRAM read bursts (Count)
system.mem_ctrl.dram.writeBursts                  953                       # Number of DRAM write bursts (Count)
system.mem_ctrl.dram.perBankRdBursts::0           847                       # Per bank write bursts (Count)
system.mem_ctrl.dram.perBankRdBursts::1           831                       # Per bank write bursts (Count)
system.mem_ctrl.dram.perBankRdBursts::2           769                       # Per bank write bursts (Count)
system.mem_ctrl.dram.perBankRdBursts::3           888                       # Per bank write bursts (Count)
system.mem_ctrl.dram.perBankRdBursts::4           844                       # Per bank write bursts (Count)
system.mem_ctrl.dram.perBankRdBursts::5           818                       # Per bank write bursts (Count)
system.mem_ctrl.dram.perBankRdBursts::6          1052                       # Per bank write bursts (Count)
system.mem_ctrl.dram.perBankRdBursts::7          1018                       # Per bank write bursts (Count)
system.mem_ctrl.dram.perBankWrBursts::0           176                       # Per bank write bursts (Count)
system.mem_ctrl.dram.perBankWrBursts::1            88                       # Per bank write bursts (Count)
system.mem_ctrl.dram.perBankWrBursts::2           104                       # Per bank write bursts (Count)
system.mem_ctrl.dram.perBankWrBursts::3            92                       # Per bank write bursts (Count)
system.mem_ctrl.dram.perBankWrBursts::4            23                       # Per bank write bursts (Count)
system.mem_ctrl.dram.perBankWrBursts::5            79                       # Per bank write bursts (Count)
system.mem_ctrl.dram.perBankWrBursts::6           249                       # Per bank write bursts (Count)
system.mem_ctrl.dram.perBankWrBursts::7           142                       # Per bank write bursts (Count)
system.mem_ctrl.dram.totQLat                 87204731                       # Total ticks spent queuing (Tick)
system.mem_ctrl.dram.totBusLat               23547244                       # Total ticks spent in databus transfers (Tick)
system.mem_ctrl.dram.totMemAccLat           210820695                       # Total ticks spent from burst creation until serviced by the DRAM (Tick)
system.mem_ctrl.dram.avgQLat                 12339.71                       # Average queueing delay per DRAM burst ((Tick/Count))
system.mem_ctrl.dram.avgBusLat                3332.00                       # Average bus latency per DRAM burst ((Tick/Count))
system.mem_ctrl.dram.avgMemAccLat            29831.71                       # Average memory access latency per DRAM burst ((Tick/Count))
system.mem_ctrl.dram.readRowHits                 4052                       # Number of row buffer hits during reads (Count)
system.mem_ctrl.dram.writeRowHits                 792                       # Number of row buffer hits during writes (Count)
system.mem_ctrl.dram.readRowHitRate             57.34                       # Row buffer hit rate for reads (Ratio)
system.mem_ctrl.dram.writeRowHitRate            83.11                       # Row buffer hit rate for writes (Ratio)
system.mem_ctrl.dram.bytesPerActivate::samples         3168                       # Bytes accessed per row activation (Byte)
system.mem_ctrl.dram.bytesPerActivate::mean   161.555556                       # Bytes accessed per row activation (Byte)
system.mem_ctrl.dram.bytesPerActivate::gmean    95.937547                       # Bytes accessed per row activation (Byte)
system.mem_ctrl.dram.bytesPerActivate::stdev   243.238947                       # Bytes accessed per row activation (Byte)
system.mem_ctrl.dram.bytesPerActivate::0-127         2418     76.33%     76.33% # Bytes accessed per row activation (Byte)
system.mem_ctrl.dram.bytesPerActivate::128-255          276      8.71%     85.04% # Bytes accessed per row activation (Byte)
system.mem_ctrl.dram.bytesPerActivate::256-383          110      3.47%     88.51% # Bytes accessed per row activation (Byte)
system.mem_ctrl.dram.bytesPerActivate::384-511           62      1.96%     90.47% # Bytes accessed per row activation (Byte)
system.mem_ctrl.dram.bytesPerActivate::512-639           56      1.77%     92.23% # Bytes accessed per row activation (Byte)
system.mem_ctrl.dram.bytesPerActivate::640-767           46      1.45%     93.69% # Bytes accessed per row activation (Byte)
system.mem_ctrl.dram.bytesPerActivate::768-895           21      0.66%     94.35% # Bytes accessed per row activation (Byte)
system.mem_ctrl.dram.bytesPerActivate::896-1023           20      0.63%     94.98% # Bytes accessed per row activation (Byte)
system.mem_ctrl.dram.bytesPerActivate::1024-1151          159      5.02%    100.00% # Bytes accessed per row activation (Byte)
system.mem_ctrl.dram.bytesPerActivate::total         3168                       # Bytes accessed per row activation (Byte)
system.mem_ctrl.dram.bytesRead                 452288                       # Total bytes read (Byte)
system.mem_ctrl.dram.bytesWritten               60992                       # Total bytes written (Byte)
system.mem_ctrl.dram.avgRdBW                 0.559265                       # Average DRAM read bandwidth in MiBytes/s ((Byte/Second))
system.mem_ctrl.dram.avgWrBW                 0.075418                       # Average DRAM write bandwidth in MiBytes/s ((Byte/Second))
system.mem_ctrl.dram.peakBW                  19207.00                       # Theoretical peak bandwidth in MiByte/s ((Byte/Second))
system.mem_ctrl.dram.busUtil                     0.00                       # Data bus utilization in percentage (Ratio)
system.mem_ctrl.dram.busUtilRead                 0.00                       # Data bus utilization in percentage for reads (Ratio)
system.mem_ctrl.dram.busUtilWrite                0.00                       # Data bus utilization in percentage for writes (Ratio)
system.mem_ctrl.dram.pageHitRate                60.40                       # Row buffer hit rate, read and write combined (Ratio)
system.mem_ctrl.dram.power_state.pwrStateResidencyTicks::UNDEFINED 808718251185                       # Cumulative time (in ticks) in various power states (Tick)
system.mem_ctrl.dram.rank0.actEnergy     17375295.100799                       # Energy for activate commands per rank (pJ) (Joule)
system.mem_ctrl.dram.rank0.preEnergy     11700022.118399                       # Energy for precharge commands per rank (pJ) (Joule)
system.mem_ctrl.dram.rank0.readEnergy    21446829.835198                       # Energy for read commands per rank (pJ) (Joule)
system.mem_ctrl.dram.rank0.writeEnergy   2663522.164800                       # Energy for write commands per rank (pJ) (Joule)
system.mem_ctrl.dram.rank0.refreshEnergy 39646582910.839012                       # Energy for refresh commands per rank (pJ) (Joule)
system.mem_ctrl.dram.rank0.actBackEnergy 11056832063.379671                       # Energy for active background per rank (pJ) (Joule)
system.mem_ctrl.dram.rank0.preBackEnergy 124923057341.241074                       # Energy for precharge background per rank (pJ) (Joule)
system.mem_ctrl.dram.rank0.actPowerDownEnergy            0                       # Energy for active power-down per rank (pJ) (Joule)
system.mem_ctrl.dram.rank0.prePowerDownEnergy            0                       # Energy for precharge power-down per rank (pJ) (Joule)
system.mem_ctrl.dram.rank0.selfRefreshEnergy            0                       # Energy for self refresh per rank (pJ) (Joule)
system.mem_ctrl.dram.rank0.totalEnergy   175679657984.666473                       # Total energy per rank (pJ) (Joule)
system.mem_ctrl.dram.rank0.averagePower    217.232216                       # Core power per rank (mW) (Watt)
system.mem_ctrl.dram.rank0.totalIdleTime            0                       # Total Idle time Per DRAM Rank (Tick)
system.mem_ctrl.dram.rank0.pwrStateTime::IDLE 764030154095                       # Time in different power states (Tick)
system.mem_ctrl.dram.rank0.pwrStateTime::REF  36354500000                       # Time in different power states (Tick)
system.mem_ctrl.dram.rank0.pwrStateTime::SREF            0                       # Time in different power states (Tick)
system.mem_ctrl.dram.rank0.pwrStateTime::PRE_PDN            0                       # Time in different power states (Tick)
system.mem_ctrl.dram.rank0.pwrStateTime::ACT   8333597090                       # Time in different power states (Tick)
system.mem_ctrl.dram.rank0.pwrStateTime::ACT_PDN            0                       # Time in different power states (Tick)
system.mem_ctrl.power_state.pwrStateResidencyTicks::UNDEFINED 808718251185                       # Cumulative time (in ticks) in various power states (Tick)
system.membus.transDist::ReadResp                3147                       # Transaction distribution (Count)
system.membus.transDist::WritebackDirty          2098                       # Transaction distribution (Count)
system.membus.transDist::CleanEvict              1791                       # Transaction distribution (Count)
system.membus.transDist::ReadExReq               5095                       # Transaction distribution (Count)
system.membus.transDist::ReadExResp              5095                       # Transaction distribution (Count)
system.membus.transDist::ReadSharedReq           3147                       # Transaction distribution (Count)
system.membus.pktCount_system.l2cache.mem_side_port::system.mem_ctrl.port        20373                       # Packet count per connected requestor and responder (Count)
system.membus.pktCount_system.l2cache.mem_side_port::total        20373                       # Packet count per connected requestor and responder (Count)
system.membus.pktCount::total                   20373                       # Packet count per connected requestor and responder (Count)
system.membus.pktSize_system.l2cache.mem_side_port::system.mem_ctrl.port       661760                       # Cumulative packet size per connected requestor and responder (Byte)
system.membus.pktSize_system.l2cache.mem_side_port::total       661760                       # Cumulative packet size per connected requestor and responder (Byte)
system.membus.pktSize::total                   661760                       # Cumulative packet size per connected requestor and responder (Byte)
system.membus.snoops                                0                       # Total snoops (Count)
system.membus.snoopTraffic                          0                       # Total snoop traffic (Byte)
system.membus.snoopFanout::samples               8242                       # Request fanout histogram (Count)
system.membus.snoopFanout::mean                     0                       # Request fanout histogram (Count)
system.membus.snoopFanout::stdev                    0                       # Request fanout histogram (Count)
system.membus.snoopFanout::underflows               0      0.00%      0.00% # Request fanout histogram (Count)
system.membus.snoopFanout::0                     8242    100.00%    100.00% # Request fanout histogram (Count)
system.membus.snoopFanout::1                        0      0.00%    100.00% # Request fanout histogram (Count)
system.membus.snoopFanout::overflows                0      0.00%    100.00% # Request fanout histogram (Count)
system.membus.snoopFanout::min_value                0                       # Request fanout histogram (Count)
system.membus.snoopFanout::max_value                0                       # Request fanout histogram (Count)
system.membus.snoopFanout::total                 8242                       # Request fanout histogram (Count)
system.membus.power_state.pwrStateResidencyTicks::UNDEFINED 808718251185                       # Cumulative time (in ticks) in various power states (Tick)
system.membus.reqLayer2.occupancy             7080435                       # Layer occupancy (ticks) (Tick)
system.membus.reqLayer2.utilization               0.0                       # Layer utilization (Ratio)
system.membus.respLayer0.occupancy           14978655                       # Layer occupancy (ticks) (Tick)
system.membus.respLayer0.utilization              0.0                       # Layer utilization (Ratio)
system.membus.snoop_filter.totRequests          12131                       # Total number of requests made to the snoop filter. (Count)
system.membus.snoop_filter.hitSingleRequests         3889                       # Number of requests hitting in the snoop filter with a single holder of the requested data. (Count)
system.membus.snoop_filter.hitMultiRequests            0                       # Number of requests hitting in the snoop filter with multiple (>1) holders of the requested data. (Count)
system.membus.snoop_filter.totSnoops                0                       # Total number of snoops made to the snoop filter. (Count)
system.membus.snoop_filter.hitSingleSnoops            0                       # Number of snoops hitting in the snoop filter with a single holder of the requested data. (Count)
system.membus.snoop_filter.hitMultiSnoops            0                       # Number of snoops hitting in the snoop filter with multiple (>1) holders of the requested data. (Count)
system.workload.inst.arm                            0                       # number of arm instructions executed (Count)
system.workload.inst.quiesce                        0                       # number of quiesce instructions executed (Count)

---------- End Simulation Statistics   ----------
