
---------- Begin Simulation Statistics ----------
simSeconds                                  18.581887                       # Number of seconds simulated (Second)
simTicks                                 18581886713655                       # Number of ticks simulated (Tick)
finalTick                                18581886713655                       # Number of ticks from beginning of simulation (restored from checkpoints and never reset) (Tick)
simFreq                                  1000000000000                       # The number of ticks per simulated second ((Tick/Second))
hostSeconds                                  10042.20                       # Real time elapsed on the host (Second)
hostTickRate                               1850380117                       # The number of ticks simulated per host second (ticks/s) ((Tick/Second))
hostMemory                                    8561328                       # Number of bytes of host memory used (Byte)
simInsts                                   8327036753                       # Number of instructions simulated (Count)
simOps                                    16879161255                       # Number of ops (including micro ops) simulated (Count)
hostInstRate                                   829204                       # Simulator instruction rate (inst/s) ((Count/Second))
hostOpRate                                    1680823                       # Simulator op (including micro ops) rate (op/s) ((Count/Second))
system.clk_domain.clock                           345                       # Clock period in ticks (Tick)
system.clk_domain.voltage_domain.voltage            1                       # Voltage in Volts (Volt)
system.cpu.numCycles                      53860541199                       # Number of cpu cycles simulated (Cycle)
system.cpu.numWorkItemsStarted                      0                       # Number of work items this cpu started (Count)
system.cpu.numWorkItemsCompleted                    0                       # Number of work items this cpu completed (Count)
system.cpu.dcache.demandHits::cpu.data     4066022077                       # number of demand (read+write) hits (Count)
system.cpu.dcache.demandHits::total        4066022077                       # number of demand (read+write) hits (Count)
system.cpu.dcache.overallHits::cpu.data    4066022077                       # number of overall hits (Count)
system.cpu.dcache.overallHits::total       4066022077                       # number of overall hits (Count)
system.cpu.dcache.demandMisses::cpu.data    210006208                       # number of demand (read+write) misses (Count)
system.cpu.dcache.demandMisses::total       210006208                       # number of demand (read+write) misses (Count)
system.cpu.dcache.overallMisses::cpu.data    210006208                       # number of overall misses (Count)
system.cpu.dcache.overallMisses::total      210006208                       # number of overall misses (Count)
system.cpu.dcache.demandMissLatency::cpu.data 8788273271700                       # number of demand (read+write) miss ticks (Tick)
system.cpu.dcache.demandMissLatency::total 8788273271700                       # number of demand (read+write) miss ticks (Tick)
system.cpu.dcache.overallMissLatency::cpu.data 8788273271700                       # number of overall miss ticks (Tick)
system.cpu.dcache.overallMissLatency::total 8788273271700                       # number of overall miss ticks (Tick)
system.cpu.dcache.demandAccesses::cpu.data   4276028285                       # number of demand (read+write) accesses (Count)
system.cpu.dcache.demandAccesses::total    4276028285                       # number of demand (read+write) accesses (Count)
system.cpu.dcache.overallAccesses::cpu.data   4276028285                       # number of overall (read+write) accesses (Count)
system.cpu.dcache.overallAccesses::total   4276028285                       # number of overall (read+write) accesses (Count)
system.cpu.dcache.demandMissRate::cpu.data     0.049112                       # miss rate for demand accesses (Ratio)
system.cpu.dcache.demandMissRate::total      0.049112                       # miss rate for demand accesses (Ratio)
system.cpu.dcache.overallMissRate::cpu.data     0.049112                       # miss rate for overall accesses (Ratio)
system.cpu.dcache.overallMissRate::total     0.049112                       # miss rate for overall accesses (Ratio)
system.cpu.dcache.demandAvgMissLatency::cpu.data 41847.683244                       # average overall miss latency in ticks ((Tick/Count))
system.cpu.dcache.demandAvgMissLatency::total 41847.683244                       # average overall miss latency in ticks ((Tick/Count))
system.cpu.dcache.overallAvgMissLatency::cpu.data 41847.683244                       # average overall miss latency ((Tick/Count))
system.cpu.dcache.overallAvgMissLatency::total 41847.683244                       # average overall miss latency ((Tick/Count))
system.cpu.dcache.blockedCycles::no_mshrs            0                       # number of cycles access was blocked (Cycle)
system.cpu.dcache.blockedCycles::no_targets            0                       # number of cycles access was blocked (Cycle)
system.cpu.dcache.blockedCauses::no_mshrs            0                       # number of times access was blocked (Count)
system.cpu.dcache.blockedCauses::no_targets            0                       # number of times access was blocked (Count)
system.cpu.dcache.avgBlocked::no_mshrs            nan                       # average number of cycles each access was blocked ((Cycle/Count))
system.cpu.dcache.avgBlocked::no_targets          nan                       # average number of cycles each access was blocked ((Cycle/Count))
system.cpu.dcache.writebacks::writebacks    210004415                       # number of writebacks (Count)
system.cpu.dcache.writebacks::total         210004415                       # number of writebacks (Count)
system.cpu.dcache.demandMshrMisses::cpu.data    210006208                       # number of demand (read+write) MSHR misses (Count)
system.cpu.dcache.demandMshrMisses::total    210006208                       # number of demand (read+write) MSHR misses (Count)
system.cpu.dcache.overallMshrMisses::cpu.data    210006208                       # number of overall MSHR misses (Count)
system.cpu.dcache.overallMshrMisses::total    210006208                       # number of overall MSHR misses (Count)
system.cpu.dcache.demandMshrMissLatency::cpu.data 8643368988180                       # number of demand (read+write) MSHR miss ticks (Tick)
system.cpu.dcache.demandMshrMissLatency::total 8643368988180                       # number of demand (read+write) MSHR miss ticks (Tick)
system.cpu.dcache.overallMshrMissLatency::cpu.data 8643368988180                       # number of overall MSHR miss ticks (Tick)
system.cpu.dcache.overallMshrMissLatency::total 8643368988180                       # number of overall MSHR miss ticks (Tick)
system.cpu.dcache.demandMshrMissRate::cpu.data     0.049112                       # mshr miss ratio for demand accesses (Ratio)
system.cpu.dcache.demandMshrMissRate::total     0.049112                       # mshr miss ratio for demand accesses (Ratio)
system.cpu.dcache.overallMshrMissRate::cpu.data     0.049112                       # mshr miss ratio for overall accesses (Ratio)
system.cpu.dcache.overallMshrMissRate::total     0.049112                       # mshr miss ratio for overall accesses (Ratio)
system.cpu.dcache.demandAvgMshrMissLatency::cpu.data 41157.683244                       # average overall mshr miss latency ((Tick/Count))
system.cpu.dcache.demandAvgMshrMissLatency::total 41157.683244                       # average overall mshr miss latency ((Tick/Count))
system.cpu.dcache.overallAvgMshrMissLatency::cpu.data 41157.683244                       # average overall mshr miss latency ((Tick/Count))
system.cpu.dcache.overallAvgMshrMissLatency::total 41157.683244                       # average overall mshr miss latency ((Tick/Count))
system.cpu.dcache.replacements              210005699                       # number of replacements (Count)
system.cpu.dcache.LockedRMWReadReq.hits::cpu.data           17                       # number of LockedRMWReadReq hits (Count)
system.cpu.dcache.LockedRMWReadReq.hits::total           17                       # number of LockedRMWReadReq hits (Count)
system.cpu.dcache.LockedRMWReadReq.misses::cpu.data            3                       # number of LockedRMWReadReq misses (Count)
system.cpu.dcache.LockedRMWReadReq.misses::total            3                       # number of LockedRMWReadReq misses (Count)
system.cpu.dcache.LockedRMWReadReq.missLatency::cpu.data       165255                       # number of LockedRMWReadReq miss ticks (Tick)
system.cpu.dcache.LockedRMWReadReq.missLatency::total       165255                       # number of LockedRMWReadReq miss ticks (Tick)
system.cpu.dcache.LockedRMWReadReq.accesses::cpu.data           20                       # number of LockedRMWReadReq accesses(hits+misses) (Count)
system.cpu.dcache.LockedRMWReadReq.accesses::total           20                       # number of LockedRMWReadReq accesses(hits+misses) (Count)
system.cpu.dcache.LockedRMWReadReq.missRate::cpu.data     0.150000                       # miss rate for LockedRMWReadReq accesses (Ratio)
system.cpu.dcache.LockedRMWReadReq.missRate::total     0.150000                       # miss rate for LockedRMWReadReq accesses (Ratio)
system.cpu.dcache.LockedRMWReadReq.avgMissLatency::cpu.data        55085                       # average LockedRMWReadReq miss latency ((Tick/Count))
system.cpu.dcache.LockedRMWReadReq.avgMissLatency::total        55085                       # average LockedRMWReadReq miss latency ((Tick/Count))
system.cpu.dcache.LockedRMWReadReq.mshrMisses::cpu.data            3                       # number of LockedRMWReadReq MSHR misses (Count)
system.cpu.dcache.LockedRMWReadReq.mshrMisses::total            3                       # number of LockedRMWReadReq MSHR misses (Count)
system.cpu.dcache.LockedRMWReadReq.mshrMissLatency::cpu.data       340170                       # number of LockedRMWReadReq MSHR miss ticks (Tick)
system.cpu.dcache.LockedRMWReadReq.mshrMissLatency::total       340170                       # number of LockedRMWReadReq MSHR miss ticks (Tick)
system.cpu.dcache.LockedRMWReadReq.mshrMissRate::cpu.data     0.150000                       # mshr miss rate for LockedRMWReadReq accesses (Ratio)
system.cpu.dcache.LockedRMWReadReq.mshrMissRate::total     0.150000                       # mshr miss rate for LockedRMWReadReq accesses (Ratio)
system.cpu.dcache.LockedRMWReadReq.avgMshrMissLatency::cpu.data       113390                       # average LockedRMWReadReq mshr miss latency ((Tick/Count))
system.cpu.dcache.LockedRMWReadReq.avgMshrMissLatency::total       113390                       # average LockedRMWReadReq mshr miss latency ((Tick/Count))
system.cpu.dcache.LockedRMWWriteReq.hits::cpu.data           20                       # number of LockedRMWWriteReq hits (Count)
system.cpu.dcache.LockedRMWWriteReq.hits::total           20                       # number of LockedRMWWriteReq hits (Count)
system.cpu.dcache.LockedRMWWriteReq.accesses::cpu.data           20                       # number of LockedRMWWriteReq accesses(hits+misses) (Count)
system.cpu.dcache.LockedRMWWriteReq.accesses::total           20                       # number of LockedRMWWriteReq accesses(hits+misses) (Count)
system.cpu.dcache.ReadReq.hits::cpu.data   2370592283                       # number of ReadReq hits (Count)
system.cpu.dcache.ReadReq.hits::total      2370592283                       # number of ReadReq hits (Count)
system.cpu.dcache.ReadReq.misses::cpu.data    105003338                       # number of ReadReq misses (Count)
system.cpu.dcache.ReadReq.misses::total     105003338                       # number of ReadReq misses (Count)
system.cpu.dcache.ReadReq.missLatency::cpu.data 4394827769175                       # number of ReadReq miss ticks (Tick)
system.cpu.dcache.ReadReq.missLatency::total 4394827769175                       # number of ReadReq miss ticks (Tick)
system.cpu.dcache.ReadReq.accesses::cpu.data   2475595621                       # number of ReadReq accesses(hits+misses) (Count)
system.cpu.dcache.ReadReq.accesses::total   2475595621                       # number of ReadReq accesses(hits+misses) (Count)
system.cpu.dcache.ReadReq.missRate::cpu.data     0.042415                       # miss rate for ReadReq accesses (Ratio)
system.cpu.dcache.ReadReq.missRate::total     0.042415                       # miss rate for ReadReq accesses (Ratio)
system.cpu.dcache.ReadReq.avgMissLatency::cpu.data 41854.172000                       # average ReadReq miss latency ((Tick/Count))
system.cpu.dcache.ReadReq.avgMissLatency::total 41854.172000                       # average ReadReq miss latency ((Tick/Count))
system.cpu.dcache.ReadReq.mshrMisses::cpu.data    105003338                       # number of ReadReq MSHR misses (Count)
system.cpu.dcache.ReadReq.mshrMisses::total    105003338                       # number of ReadReq MSHR misses (Count)
system.cpu.dcache.ReadReq.mshrMissLatency::cpu.data 4322375465955                       # number of ReadReq MSHR miss ticks (Tick)
system.cpu.dcache.ReadReq.mshrMissLatency::total 4322375465955                       # number of ReadReq MSHR miss ticks (Tick)
system.cpu.dcache.ReadReq.mshrMissRate::cpu.data     0.042415                       # mshr miss rate for ReadReq accesses (Ratio)
system.cpu.dcache.ReadReq.mshrMissRate::total     0.042415                       # mshr miss rate for ReadReq accesses (Ratio)
system.cpu.dcache.ReadReq.avgMshrMissLatency::cpu.data 41164.172000                       # average ReadReq mshr miss latency ((Tick/Count))
system.cpu.dcache.ReadReq.avgMshrMissLatency::total 41164.172000                       # average ReadReq mshr miss latency ((Tick/Count))
system.cpu.dcache.WriteReq.hits::cpu.data   1695429794                       # number of WriteReq hits (Count)
system.cpu.dcache.WriteReq.hits::total     1695429794                       # number of WriteReq hits (Count)
system.cpu.dcache.WriteReq.misses::cpu.data    105002870                       # number of WriteReq misses (Count)
system.cpu.dcache.WriteReq.misses::total    105002870                       # number of WriteReq misses (Count)
system.cpu.dcache.WriteReq.missLatency::cpu.data 4393445502525                       # number of WriteReq miss ticks (Tick)
system.cpu.dcache.WriteReq.missLatency::total 4393445502525                       # number of WriteReq miss ticks (Tick)
system.cpu.dcache.WriteReq.accesses::cpu.data   1800432664                       # number of WriteReq accesses(hits+misses) (Count)
system.cpu.dcache.WriteReq.accesses::total   1800432664                       # number of WriteReq accesses(hits+misses) (Count)
system.cpu.dcache.WriteReq.missRate::cpu.data     0.058321                       # miss rate for WriteReq accesses (Ratio)
system.cpu.dcache.WriteReq.missRate::total     0.058321                       # miss rate for WriteReq accesses (Ratio)
system.cpu.dcache.WriteReq.avgMissLatency::cpu.data 41841.194460                       # average WriteReq miss latency ((Tick/Count))
system.cpu.dcache.WriteReq.avgMissLatency::total 41841.194460                       # average WriteReq miss latency ((Tick/Count))
system.cpu.dcache.WriteReq.mshrMisses::cpu.data    105002870                       # number of WriteReq MSHR misses (Count)
system.cpu.dcache.WriteReq.mshrMisses::total    105002870                       # number of WriteReq MSHR misses (Count)
system.cpu.dcache.WriteReq.mshrMissLatency::cpu.data 4320993522225                       # number of WriteReq MSHR miss ticks (Tick)
system.cpu.dcache.WriteReq.mshrMissLatency::total 4320993522225                       # number of WriteReq MSHR miss ticks (Tick)
system.cpu.dcache.WriteReq.mshrMissRate::cpu.data     0.058321                       # mshr miss rate for WriteReq accesses (Ratio)
system.cpu.dcache.WriteReq.mshrMissRate::total     0.058321                       # mshr miss rate for WriteReq accesses (Ratio)
system.cpu.dcache.WriteReq.avgMshrMissLatency::cpu.data 41151.194460                       # average WriteReq mshr miss latency ((Tick/Count))
system.cpu.dcache.WriteReq.avgMshrMissLatency::total 41151.194460                       # average WriteReq mshr miss latency ((Tick/Count))
system.cpu.dcache.power_state.pwrStateResidencyTicks::UNDEFINED 18581886713655                       # Cumulative time (in ticks) in various power states (Tick)
system.cpu.dcache.tags.tagsInUse           511.998550                       # Average ticks per tags in use ((Tick/Count))
system.cpu.dcache.tags.totalRefs           4276028325                       # Total number of references to valid blocks. (Count)
system.cpu.dcache.tags.sampledRefs          210006211                       # Sample count of references to valid blocks. (Count)
system.cpu.dcache.tags.avgRefs              20.361437                       # Average number of references to valid blocks. ((Count/Count))
system.cpu.dcache.tags.warmupTick              148350                       # The tick when the warmup percentage was hit. (Tick)
system.cpu.dcache.tags.occupancies::cpu.data   511.998550                       # Average occupied blocks per tick, per requestor ((Count/Tick))
system.cpu.dcache.tags.avgOccs::cpu.data     0.999997                       # Average percentage of cache occupancy ((Ratio/Tick))
system.cpu.dcache.tags.avgOccs::total        0.999997                       # Average percentage of cache occupancy ((Ratio/Tick))
system.cpu.dcache.tags.occupanciesTaskId::1024          512                       # Occupied blocks per task id (Count)
system.cpu.dcache.tags.ageTaskId_1024::0           42                       # Occupied blocks per task id, per block age (Count)
system.cpu.dcache.tags.ageTaskId_1024::1          459                       # Occupied blocks per task id, per block age (Count)
system.cpu.dcache.tags.ageTaskId_1024::2           11                       # Occupied blocks per task id, per block age (Count)
system.cpu.dcache.tags.ratioOccsTaskId::1024            1                       # Ratio of occupied blocks and all blocks, per task id (Ratio)
system.cpu.dcache.tags.tagAccesses         8762062861                       # Number of tag accesses (Count)
system.cpu.dcache.tags.dataAccesses        8762062861                       # Number of data accesses (Count)
system.cpu.dcache.tags.power_state.pwrStateResidencyTicks::UNDEFINED 18581886713655                       # Cumulative time (in ticks) in various power states (Tick)
system.cpu.exec_context.thread_0.numInsts   8327036753                       # Number of instructions committed (Count)
system.cpu.exec_context.thread_0.numOps   16879161255                       # Number of ops (including micro ops) committed (Count)
system.cpu.exec_context.thread_0.numIntAluAccesses  16429051325                       # Number of integer alu accesses (Count)
system.cpu.exec_context.thread_0.numFpAluAccesses         6101                       # Number of float alu accesses (Count)
system.cpu.exec_context.thread_0.numVecAluAccesses            0                       # Number of vector alu accesses (Count)
system.cpu.exec_context.thread_0.numCallsReturns    900211665                       # Number of times a function call or return occured (Count)
system.cpu.exec_context.thread_0.numCondCtrlInsts    675181730                       # Number of instructions that are conditional controls (Count)
system.cpu.exec_context.thread_0.numIntInsts  16429051325                       # Number of integer instructions (Count)
system.cpu.exec_context.thread_0.numFpInsts         6101                       # Number of float instructions (Count)
system.cpu.exec_context.thread_0.numVecInsts            0                       # Number of vector instructions (Count)
system.cpu.exec_context.thread_0.numIntRegReads  22055344627                       # Number of times the integer registers were read (Count)
system.cpu.exec_context.thread_0.numIntRegWrites  12152986099                       # Number of times the integer registers were written (Count)
system.cpu.exec_context.thread_0.numFpRegReads         8602                       # Number of times the floating registers were read (Count)
system.cpu.exec_context.thread_0.numFpRegWrites         4447                       # Number of times the floating registers were written (Count)
system.cpu.exec_context.thread_0.numVecRegReads            0                       # Number of times the vector registers were read (Count)
system.cpu.exec_context.thread_0.numVecRegWrites            0                       # Number of times the vector registers were written (Count)
system.cpu.exec_context.thread_0.numVecPredRegReads            0                       # Number of times the predicate registers were read (Count)
system.cpu.exec_context.thread_0.numVecPredRegWrites            0                       # Number of times the predicate registers were written (Count)
system.cpu.exec_context.thread_0.numCCRegReads   3375938749                       # Number of times the CC registers were read (Count)
system.cpu.exec_context.thread_0.numCCRegWrites   3150824512                       # Number of times the CC registers were written (Count)
system.cpu.exec_context.thread_0.numMiscRegReads   7426831236                       # Number of times the Misc registers were read (Count)
system.cpu.exec_context.thread_0.numMiscRegWrites           18                       # Number of times the Misc registers were written (Count)
system.cpu.exec_context.thread_0.numMemRefs   4276028614                       # Number of memory refs (Count)
system.cpu.exec_context.thread_0.numLoadInsts   2475595684                       # Number of load instructions (Count)
system.cpu.exec_context.thread_0.numStoreInsts   1800432930                       # Number of store instructions (Count)
system.cpu.exec_context.thread_0.numIdleCycles     0.002900                       # Number of idle cycles (Cycle)
system.cpu.exec_context.thread_0.numBusyCycles 53860541198.997101                       # Number of busy cycles (Cycle)
system.cpu.exec_context.thread_0.notIdleFraction     1.000000                       # Percentage of non-idle cycles (Ratio)
system.cpu.exec_context.thread_0.idleFraction     0.000000                       # Percentage of idle cycles (Ratio)
system.cpu.exec_context.thread_0.numBranches   1800454433                       # Number of branches fetched (Count)
system.cpu.exec_context.thread_0.statExecutedInstType::No_OpClass    450106141      2.67%      2.67% # Class of executed instruction. (Count)
system.cpu.exec_context.thread_0.statExecutedInstType::IntAlu  12153021794     72.00%     74.67% # Class of executed instruction. (Count)
system.cpu.exec_context.thread_0.statExecutedInstType::IntMult           32      0.00%     74.67% # Class of executed instruction. (Count)
system.cpu.exec_context.thread_0.statExecutedInstType::IntDiv         1399      0.00%     74.67% # Class of executed instruction. (Count)
system.cpu.exec_context.thread_0.statExecutedInstType::FloatAdd          429      0.00%     74.67% # Class of executed instruction. (Count)
system.cpu.exec_context.thread_0.statExecutedInstType::FloatCmp            0      0.00%     74.67% # Class of executed instruction. (Count)
system.cpu.exec_context.thread_0.statExecutedInstType::FloatCvt           32      0.00%     74.67% # Class of executed instruction. (Count)
system.cpu.exec_context.thread_0.statExecutedInstType::FloatMult            0      0.00%     74.67% # Class of executed instruction. (Count)
system.cpu.exec_context.thread_0.statExecutedInstType::FloatMultAcc            0      0.00%     74.67% # Class of executed instruction. (Count)
system.cpu.exec_context.thread_0.statExecutedInstType::FloatDiv            0      0.00%     74.67% # Class of executed instruction. (Count)
system.cpu.exec_context.thread_0.statExecutedInstType::FloatMisc            0      0.00%     74.67% # Class of executed instruction. (Count)
system.cpu.exec_context.thread_0.statExecutedInstType::FloatSqrt            0      0.00%     74.67% # Class of executed instruction. (Count)
system.cpu.exec_context.thread_0.statExecutedInstType::SimdAdd          342      0.00%     74.67% # Class of executed instruction. (Count)
system.cpu.exec_context.thread_0.statExecutedInstType::SimdAddAcc            0      0.00%     74.67% # Class of executed instruction. (Count)
system.cpu.exec_context.thread_0.statExecutedInstType::SimdAlu          805      0.00%     74.67% # Class of executed instruction. (Count)
system.cpu.exec_context.thread_0.statExecutedInstType::SimdCmp            6      0.00%     74.67% # Class of executed instruction. (Count)
system.cpu.exec_context.thread_0.statExecutedInstType::SimdCvt          834      0.00%     74.67% # Class of executed instruction. (Count)
system.cpu.exec_context.thread_0.statExecutedInstType::SimdMisc          995      0.00%     74.67% # Class of executed instruction. (Count)
system.cpu.exec_context.thread_0.statExecutedInstType::SimdMult            0      0.00%     74.67% # Class of executed instruction. (Count)
system.cpu.exec_context.thread_0.statExecutedInstType::SimdMultAcc            0      0.00%     74.67% # Class of executed instruction. (Count)
system.cpu.exec_context.thread_0.statExecutedInstType::SimdShift          171      0.00%     74.67% # Class of executed instruction. (Count)
system.cpu.exec_context.thread_0.statExecutedInstType::SimdShiftAcc            0      0.00%     74.67% # Class of executed instruction. (Count)
system.cpu.exec_context.thread_0.statExecutedInstType::SimdDiv            0      0.00%     74.67% # Class of executed instruction. (Count)
system.cpu.exec_context.thread_0.statExecutedInstType::SimdSqrt            0      0.00%     74.67% # Class of executed instruction. (Count)
system.cpu.exec_context.thread_0.statExecutedInstType::SimdFloatAdd            0      0.00%     74.67% # Class of executed instruction. (Count)
system.cpu.exec_context.thread_0.statExecutedInstType::SimdFloatAlu            0      0.00%     74.67% # Class of executed instruction. (Count)
system.cpu.exec_context.thread_0.statExecutedInstType::SimdFloatCmp            0      0.00%     74.67% # Class of executed instruction. (Count)
system.cpu.exec_context.thread_0.statExecutedInstType::SimdFloatCvt            0      0.00%     74.67% # Class of executed instruction. (Count)
system.cpu.exec_context.thread_0.statExecutedInstType::SimdFloatDiv            0      0.00%     74.67% # Class of executed instruction. (Count)
system.cpu.exec_context.thread_0.statExecutedInstType::SimdFloatMisc            0      0.00%     74.67% # Class of executed instruction. (Count)
system.cpu.exec_context.thread_0.statExecutedInstType::SimdFloatMult            0      0.00%     74.67% # Class of executed instruction. (Count)
system.cpu.exec_context.thread_0.statExecutedInstType::SimdFloatMultAcc            0      0.00%     74.67% # Class of executed instruction. (Count)
system.cpu.exec_context.thread_0.statExecutedInstType::SimdFloatSqrt            0      0.00%     74.67% # Class of executed instruction. (Count)
system.cpu.exec_context.thread_0.statExecutedInstType::SimdReduceAdd            0      0.00%     74.67% # Class of executed instruction. (Count)
system.cpu.exec_context.thread_0.statExecutedInstType::SimdReduceAlu            0      0.00%     74.67% # Class of executed instruction. (Count)
system.cpu.exec_context.thread_0.statExecutedInstType::SimdReduceCmp            0      0.00%     74.67% # Class of executed instruction. (Count)
system.cpu.exec_context.thread_0.statExecutedInstType::SimdFloatReduceAdd            0      0.00%     74.67% # Class of executed instruction. (Count)
system.cpu.exec_context.thread_0.statExecutedInstType::SimdFloatReduceCmp            0      0.00%     74.67% # Class of executed instruction. (Count)
system.cpu.exec_context.thread_0.statExecutedInstType::SimdAes            0      0.00%     74.67% # Class of executed instruction. (Count)
system.cpu.exec_context.thread_0.statExecutedInstType::SimdAesMix            0      0.00%     74.67% # Class of executed instruction. (Count)
system.cpu.exec_context.thread_0.statExecutedInstType::SimdSha1Hash            0      0.00%     74.67% # Class of executed instruction. (Count)
system.cpu.exec_context.thread_0.statExecutedInstType::SimdSha1Hash2            0      0.00%     74.67% # Class of executed instruction. (Count)
system.cpu.exec_context.thread_0.statExecutedInstType::SimdSha256Hash            0      0.00%     74.67% # Class of executed instruction. (Count)
system.cpu.exec_context.thread_0.statExecutedInstType::SimdSha256Hash2            0      0.00%     74.67% # Class of executed instruction. (Count)
system.cpu.exec_context.thread_0.statExecutedInstType::SimdShaSigma2            0      0.00%     74.67% # Class of executed instruction. (Count)
system.cpu.exec_context.thread_0.statExecutedInstType::SimdShaSigma3            0      0.00%     74.67% # Class of executed instruction. (Count)
system.cpu.exec_context.thread_0.statExecutedInstType::SimdPredAlu            0      0.00%     74.67% # Class of executed instruction. (Count)
system.cpu.exec_context.thread_0.statExecutedInstType::MemRead   2475594714     14.67%     89.33% # Class of executed instruction. (Count)
system.cpu.exec_context.thread_0.statExecutedInstType::MemWrite   1800431767     10.67%    100.00% # Class of executed instruction. (Count)
system.cpu.exec_context.thread_0.statExecutedInstType::FloatMemRead          970      0.00%    100.00% # Class of executed instruction. (Count)
system.cpu.exec_context.thread_0.statExecutedInstType::FloatMemWrite         1163      0.00%    100.00% # Class of executed instruction. (Count)
system.cpu.exec_context.thread_0.statExecutedInstType::IprAccess            0      0.00%    100.00% # Class of executed instruction. (Count)
system.cpu.exec_context.thread_0.statExecutedInstType::InstPrefetch            0      0.00%    100.00% # Class of executed instruction. (Count)
system.cpu.exec_context.thread_0.statExecutedInstType::total  16879161594                       # Class of executed instruction. (Count)
system.cpu.icache.demandHits::cpu.inst    10127504402                       # number of demand (read+write) hits (Count)
system.cpu.icache.demandHits::total       10127504402                       # number of demand (read+write) hits (Count)
system.cpu.icache.overallHits::cpu.inst   10127504402                       # number of overall hits (Count)
system.cpu.icache.overallHits::total      10127504402                       # number of overall hits (Count)
system.cpu.icache.demandMisses::cpu.inst         1264                       # number of demand (read+write) misses (Count)
system.cpu.icache.demandMisses::total            1264                       # number of demand (read+write) misses (Count)
system.cpu.icache.overallMisses::cpu.inst         1264                       # number of overall misses (Count)
system.cpu.icache.overallMisses::total           1264                       # number of overall misses (Count)
system.cpu.icache.demandMissLatency::cpu.inst     80071740                       # number of demand (read+write) miss ticks (Tick)
system.cpu.icache.demandMissLatency::total     80071740                       # number of demand (read+write) miss ticks (Tick)
system.cpu.icache.overallMissLatency::cpu.inst     80071740                       # number of overall miss ticks (Tick)
system.cpu.icache.overallMissLatency::total     80071740                       # number of overall miss ticks (Tick)
system.cpu.icache.demandAccesses::cpu.inst  10127505666                       # number of demand (read+write) accesses (Count)
system.cpu.icache.demandAccesses::total   10127505666                       # number of demand (read+write) accesses (Count)
system.cpu.icache.overallAccesses::cpu.inst  10127505666                       # number of overall (read+write) accesses (Count)
system.cpu.icache.overallAccesses::total  10127505666                       # number of overall (read+write) accesses (Count)
system.cpu.icache.demandMissRate::cpu.inst     0.000000                       # miss rate for demand accesses (Ratio)
system.cpu.icache.demandMissRate::total      0.000000                       # miss rate for demand accesses (Ratio)
system.cpu.icache.overallMissRate::cpu.inst     0.000000                       # miss rate for overall accesses (Ratio)
system.cpu.icache.overallMissRate::total     0.000000                       # miss rate for overall accesses (Ratio)
system.cpu.icache.demandAvgMissLatency::cpu.inst 63347.895570                       # average overall miss latency in ticks ((Tick/Count))
system.cpu.icache.demandAvgMissLatency::total 63347.895570                       # average overall miss latency in ticks ((Tick/Count))
system.cpu.icache.overallAvgMissLatency::cpu.inst 63347.895570                       # average overall miss latency ((Tick/Count))
system.cpu.icache.overallAvgMissLatency::total 63347.895570                       # average overall miss latency ((Tick/Count))
system.cpu.icache.blockedCycles::no_mshrs            0                       # number of cycles access was blocked (Cycle)
system.cpu.icache.blockedCycles::no_targets            0                       # number of cycles access was blocked (Cycle)
system.cpu.icache.blockedCauses::no_mshrs            0                       # number of times access was blocked (Count)
system.cpu.icache.blockedCauses::no_targets            0                       # number of times access was blocked (Count)
system.cpu.icache.avgBlocked::no_mshrs            nan                       # average number of cycles each access was blocked ((Cycle/Count))
system.cpu.icache.avgBlocked::no_targets          nan                       # average number of cycles each access was blocked ((Cycle/Count))
system.cpu.icache.demandMshrMisses::cpu.inst         1264                       # number of demand (read+write) MSHR misses (Count)
system.cpu.icache.demandMshrMisses::total         1264                       # number of demand (read+write) MSHR misses (Count)
system.cpu.icache.overallMshrMisses::cpu.inst         1264                       # number of overall MSHR misses (Count)
system.cpu.icache.overallMshrMisses::total         1264                       # number of overall MSHR misses (Count)
system.cpu.icache.demandMshrMissLatency::cpu.inst     79199580                       # number of demand (read+write) MSHR miss ticks (Tick)
system.cpu.icache.demandMshrMissLatency::total     79199580                       # number of demand (read+write) MSHR miss ticks (Tick)
system.cpu.icache.overallMshrMissLatency::cpu.inst     79199580                       # number of overall MSHR miss ticks (Tick)
system.cpu.icache.overallMshrMissLatency::total     79199580                       # number of overall MSHR miss ticks (Tick)
system.cpu.icache.demandMshrMissRate::cpu.inst     0.000000                       # mshr miss ratio for demand accesses (Ratio)
system.cpu.icache.demandMshrMissRate::total     0.000000                       # mshr miss ratio for demand accesses (Ratio)
system.cpu.icache.overallMshrMissRate::cpu.inst     0.000000                       # mshr miss ratio for overall accesses (Ratio)
system.cpu.icache.overallMshrMissRate::total     0.000000                       # mshr miss ratio for overall accesses (Ratio)
system.cpu.icache.demandAvgMshrMissLatency::cpu.inst 62657.895570                       # average overall mshr miss latency ((Tick/Count))
system.cpu.icache.demandAvgMshrMissLatency::total 62657.895570                       # average overall mshr miss latency ((Tick/Count))
system.cpu.icache.overallAvgMshrMissLatency::cpu.inst 62657.895570                       # average overall mshr miss latency ((Tick/Count))
system.cpu.icache.overallAvgMshrMissLatency::total 62657.895570                       # average overall mshr miss latency ((Tick/Count))
system.cpu.icache.replacements                    763                       # number of replacements (Count)
system.cpu.icache.ReadReq.hits::cpu.inst  10127504402                       # number of ReadReq hits (Count)
system.cpu.icache.ReadReq.hits::total     10127504402                       # number of ReadReq hits (Count)
system.cpu.icache.ReadReq.misses::cpu.inst         1264                       # number of ReadReq misses (Count)
system.cpu.icache.ReadReq.misses::total          1264                       # number of ReadReq misses (Count)
system.cpu.icache.ReadReq.missLatency::cpu.inst     80071740                       # number of ReadReq miss ticks (Tick)
system.cpu.icache.ReadReq.missLatency::total     80071740                       # number of ReadReq miss ticks (Tick)
system.cpu.icache.ReadReq.accesses::cpu.inst  10127505666                       # number of ReadReq accesses(hits+misses) (Count)
system.cpu.icache.ReadReq.accesses::total  10127505666                       # number of ReadReq accesses(hits+misses) (Count)
system.cpu.icache.ReadReq.missRate::cpu.inst     0.000000                       # miss rate for ReadReq accesses (Ratio)
system.cpu.icache.ReadReq.missRate::total     0.000000                       # miss rate for ReadReq accesses (Ratio)
system.cpu.icache.ReadReq.avgMissLatency::cpu.inst 63347.895570                       # average ReadReq miss latency ((Tick/Count))
system.cpu.icache.ReadReq.avgMissLatency::total 63347.895570                       # average ReadReq miss latency ((Tick/Count))
system.cpu.icache.ReadReq.mshrMisses::cpu.inst         1264                       # number of ReadReq MSHR misses (Count)
system.cpu.icache.ReadReq.mshrMisses::total         1264                       # number of ReadReq MSHR misses (Count)
system.cpu.icache.ReadReq.mshrMissLatency::cpu.inst     79199580                       # number of ReadReq MSHR miss ticks (Tick)
system.cpu.icache.ReadReq.mshrMissLatency::total     79199580                       # number of ReadReq MSHR miss ticks (Tick)
system.cpu.icache.ReadReq.mshrMissRate::cpu.inst     0.000000                       # mshr miss rate for ReadReq accesses (Ratio)
system.cpu.icache.ReadReq.mshrMissRate::total     0.000000                       # mshr miss rate for ReadReq accesses (Ratio)
system.cpu.icache.ReadReq.avgMshrMissLatency::cpu.inst 62657.895570                       # average ReadReq mshr miss latency ((Tick/Count))
system.cpu.icache.ReadReq.avgMshrMissLatency::total 62657.895570                       # average ReadReq mshr miss latency ((Tick/Count))
system.cpu.icache.power_state.pwrStateResidencyTicks::UNDEFINED 18581886713655                       # Cumulative time (in ticks) in various power states (Tick)
system.cpu.icache.tags.tagsInUse           480.998493                       # Average ticks per tags in use ((Tick/Count))
system.cpu.icache.tags.totalRefs           5832538370                       # Total number of references to valid blocks. (Count)
system.cpu.icache.tags.sampledRefs               1264                       # Sample count of references to valid blocks. (Count)
system.cpu.icache.tags.avgRefs           4614349.976266                       # Average number of references to valid blocks. ((Count/Count))
system.cpu.icache.tags.warmupTick               76590                       # The tick when the warmup percentage was hit. (Tick)
system.cpu.icache.tags.occupancies::cpu.inst   480.998493                       # Average occupied blocks per tick, per requestor ((Count/Tick))
system.cpu.icache.tags.avgOccs::cpu.inst     0.939450                       # Average percentage of cache occupancy ((Ratio/Tick))
system.cpu.icache.tags.avgOccs::total        0.939450                       # Average percentage of cache occupancy ((Ratio/Tick))
system.cpu.icache.tags.occupanciesTaskId::1024          501                       # Occupied blocks per task id (Count)
system.cpu.icache.tags.ageTaskId_1024::0           79                       # Occupied blocks per task id, per block age (Count)
system.cpu.icache.tags.ageTaskId_1024::1          169                       # Occupied blocks per task id, per block age (Count)
system.cpu.icache.tags.ageTaskId_1024::4          253                       # Occupied blocks per task id, per block age (Count)
system.cpu.icache.tags.ratioOccsTaskId::1024     0.978516                       # Ratio of occupied blocks and all blocks, per task id (Ratio)
system.cpu.icache.tags.tagAccesses        20255012596                       # Number of tag accesses (Count)
system.cpu.icache.tags.dataAccesses       20255012596                       # Number of data accesses (Count)
system.cpu.icache.tags.power_state.pwrStateResidencyTicks::UNDEFINED 18581886713655                       # Cumulative time (in ticks) in various power states (Tick)
system.cpu.interrupts.clk_domain.clock           5520                       # Clock period in ticks (Tick)
system.cpu.mmu.dtb.rdAccesses              2475595695                       # TLB accesses on read requests (Count)
system.cpu.mmu.dtb.wrAccesses              1800432931                       # TLB accesses on write requests (Count)
system.cpu.mmu.dtb.rdMisses                    940444                       # TLB misses on read requests (Count)
system.cpu.mmu.dtb.wrMisses                    940598                       # TLB misses on write requests (Count)
system.cpu.mmu.dtb.walker.power_state.pwrStateResidencyTicks::UNDEFINED 18581886713655                       # Cumulative time (in ticks) in various power states (Tick)
system.cpu.mmu.itb.rdAccesses                       0                       # TLB accesses on read requests (Count)
system.cpu.mmu.itb.wrAccesses             10127505711                       # TLB accesses on write requests (Count)
system.cpu.mmu.itb.rdMisses                         0                       # TLB misses on read requests (Count)
system.cpu.mmu.itb.wrMisses                       187                       # TLB misses on write requests (Count)
system.cpu.mmu.itb.walker.power_state.pwrStateResidencyTicks::UNDEFINED 18581886713655                       # Cumulative time (in ticks) in various power states (Tick)
system.cpu.power_state.pwrStateResidencyTicks::ON 18581886713655                       # Cumulative time (in ticks) in various power states (Tick)
system.cpu.thread_0.numInsts                        0                       # Number of Instructions committed (Count)
system.cpu.thread_0.numOps                          0                       # Number of Ops committed (Count)
system.cpu.thread_0.numMemRefs                      0                       # Number of Memory References (Count)
system.cpu.workload.numSyscalls                    38                       # Number of system calls (Count)
system.l2bus.transDist::ReadResp            105004602                       # Transaction distribution (Count)
system.l2bus.transDist::WritebackDirty      328978891                       # Transaction distribution (Count)
system.l2bus.transDist::CleanEvict               4152                       # Transaction distribution (Count)
system.l2bus.transDist::ReadExReq           105002873                       # Transaction distribution (Count)
system.l2bus.transDist::ReadExResp          105002873                       # Transaction distribution (Count)
system.l2bus.transDist::ReadSharedReq       105004602                       # Transaction distribution (Count)
system.l2bus.pktCount_system.cpu.icache.mem_side_port::system.l2cache.cpu_side_port         3291                       # Packet count per connected requestor and responder (Count)
system.l2bus.pktCount_system.cpu.dcache.mem_side_port::system.l2cache.cpu_side_port    630018121                       # Packet count per connected requestor and responder (Count)
system.l2bus.pktCount::total                630021412                       # Packet count per connected requestor and responder (Count)
system.l2bus.pktSize_system.cpu.icache.mem_side_port::system.l2cache.cpu_side_port        80896                       # Cumulative packet size per connected requestor and responder (Byte)
system.l2bus.pktSize_system.cpu.dcache.mem_side_port::system.l2cache.cpu_side_port  26880680064                       # Cumulative packet size per connected requestor and responder (Byte)
system.l2bus.pktSize::total               26880760960                       # Cumulative packet size per connected requestor and responder (Byte)
system.l2bus.snoops                         118976581                       # Total snoops (Count)
system.l2bus.snoopTraffic                  7614366464                       # Total snoop traffic (Byte)
system.l2bus.snoopFanout::samples           328984056                       # Request fanout histogram (Count)
system.l2bus.snoopFanout::mean               0.000001                       # Request fanout histogram (Count)
system.l2bus.snoopFanout::stdev              0.001214                       # Request fanout histogram (Count)
system.l2bus.snoopFanout::underflows                0      0.00%      0.00% # Request fanout histogram (Count)
system.l2bus.snoopFanout::0                 328983571    100.00%    100.00% # Request fanout histogram (Count)
system.l2bus.snoopFanout::1                       485      0.00%    100.00% # Request fanout histogram (Count)
system.l2bus.snoopFanout::2                         0      0.00%    100.00% # Request fanout histogram (Count)
system.l2bus.snoopFanout::overflows                 0      0.00%    100.00% # Request fanout histogram (Count)
system.l2bus.snoopFanout::min_value                 0                       # Request fanout histogram (Count)
system.l2bus.snoopFanout::max_value                 1                       # Request fanout histogram (Count)
system.l2bus.snoopFanout::total             328984056                       # Request fanout histogram (Count)
system.l2bus.power_state.pwrStateResidencyTicks::UNDEFINED 18581886713655                       # Cumulative time (in ticks) in various power states (Tick)
system.l2bus.reqLayer0.occupancy         289807854615                       # Layer occupancy (ticks) (Tick)
system.l2bus.reqLayer0.utilization                0.0                       # Layer utilization (Ratio)
system.l2bus.respLayer0.occupancy             1308240                       # Layer occupancy (ticks) (Tick)
system.l2bus.respLayer0.utilization               0.0                       # Layer utilization (Ratio)
system.l2bus.respLayer1.occupancy        217356428385                       # Layer occupancy (ticks) (Tick)
system.l2bus.respLayer1.utilization               0.0                       # Layer utilization (Ratio)
system.l2bus.snoop_filter.totRequests       420013937                       # Total number of requests made to the snoop filter. (Count)
system.l2bus.snoop_filter.hitSingleRequests    210006462                       # Number of requests hitting in the snoop filter with a single holder of the requested data. (Count)
system.l2bus.snoop_filter.hitMultiRequests            0                       # Number of requests hitting in the snoop filter with multiple (>1) holders of the requested data. (Count)
system.l2bus.snoop_filter.totSnoops               485                       # Total number of snoops made to the snoop filter. (Count)
system.l2bus.snoop_filter.hitSingleSnoops          485                       # Number of snoops hitting in the snoop filter with a single holder of the requested data. (Count)
system.l2bus.snoop_filter.hitMultiSnoops            0                       # Number of snoops hitting in the snoop filter with multiple (>1) holders of the requested data. (Count)
system.l2cache.demandHits::cpu.inst                47                       # number of demand (read+write) hits (Count)
system.l2cache.demandHits::cpu.data          91026752                       # number of demand (read+write) hits (Count)
system.l2cache.demandHits::total             91026799                       # number of demand (read+write) hits (Count)
system.l2cache.overallHits::cpu.inst               47                       # number of overall hits (Count)
system.l2cache.overallHits::cpu.data         91026752                       # number of overall hits (Count)
system.l2cache.overallHits::total            91026799                       # number of overall hits (Count)
system.l2cache.demandMisses::cpu.inst            1217                       # number of demand (read+write) misses (Count)
system.l2cache.demandMisses::cpu.data       118979459                       # number of demand (read+write) misses (Count)
system.l2cache.demandMisses::total          118980676                       # number of demand (read+write) misses (Count)
system.l2cache.overallMisses::cpu.inst           1217                       # number of overall misses (Count)
system.l2cache.overallMisses::cpu.data      118979459                       # number of overall misses (Count)
system.l2cache.overallMisses::total         118980676                       # number of overall misses (Count)
system.l2cache.demandMissLatency::cpu.inst     77549100                       # number of demand (read+write) miss ticks (Tick)
system.l2cache.demandMissLatency::cpu.data 7766523893355                       # number of demand (read+write) miss ticks (Tick)
system.l2cache.demandMissLatency::total  7766601442455                       # number of demand (read+write) miss ticks (Tick)
system.l2cache.overallMissLatency::cpu.inst     77549100                       # number of overall miss ticks (Tick)
system.l2cache.overallMissLatency::cpu.data 7766523893355                       # number of overall miss ticks (Tick)
system.l2cache.overallMissLatency::total 7766601442455                       # number of overall miss ticks (Tick)
system.l2cache.demandAccesses::cpu.inst          1264                       # number of demand (read+write) accesses (Count)
system.l2cache.demandAccesses::cpu.data     210006211                       # number of demand (read+write) accesses (Count)
system.l2cache.demandAccesses::total        210007475                       # number of demand (read+write) accesses (Count)
system.l2cache.overallAccesses::cpu.inst         1264                       # number of overall (read+write) accesses (Count)
system.l2cache.overallAccesses::cpu.data    210006211                       # number of overall (read+write) accesses (Count)
system.l2cache.overallAccesses::total       210007475                       # number of overall (read+write) accesses (Count)
system.l2cache.demandMissRate::cpu.inst      0.962816                       # miss rate for demand accesses (Ratio)
system.l2cache.demandMissRate::cpu.data      0.566552                       # miss rate for demand accesses (Ratio)
system.l2cache.demandMissRate::total         0.566554                       # miss rate for demand accesses (Ratio)
system.l2cache.overallMissRate::cpu.inst     0.962816                       # miss rate for overall accesses (Ratio)
system.l2cache.overallMissRate::cpu.data     0.566552                       # miss rate for overall accesses (Ratio)
system.l2cache.overallMissRate::total        0.566554                       # miss rate for overall accesses (Ratio)
system.l2cache.demandAvgMissLatency::cpu.inst 63721.528348                       # average overall miss latency in ticks ((Tick/Count))
system.l2cache.demandAvgMissLatency::cpu.data 65276.174212                       # average overall miss latency in ticks ((Tick/Count))
system.l2cache.demandAvgMissLatency::total 65276.158310                       # average overall miss latency in ticks ((Tick/Count))
system.l2cache.overallAvgMissLatency::cpu.inst 63721.528348                       # average overall miss latency ((Tick/Count))
system.l2cache.overallAvgMissLatency::cpu.data 65276.174212                       # average overall miss latency ((Tick/Count))
system.l2cache.overallAvgMissLatency::total 65276.158310                       # average overall miss latency ((Tick/Count))
system.l2cache.blockedCycles::no_mshrs              0                       # number of cycles access was blocked (Cycle)
system.l2cache.blockedCycles::no_targets            0                       # number of cycles access was blocked (Cycle)
system.l2cache.blockedCauses::no_mshrs              0                       # number of times access was blocked (Count)
system.l2cache.blockedCauses::no_targets            0                       # number of times access was blocked (Count)
system.l2cache.avgBlocked::no_mshrs               nan                       # average number of cycles each access was blocked ((Cycle/Count))
system.l2cache.avgBlocked::no_targets             nan                       # average number of cycles each access was blocked ((Cycle/Count))
system.l2cache.writebacks::writebacks       118974476                       # number of writebacks (Count)
system.l2cache.writebacks::total            118974476                       # number of writebacks (Count)
system.l2cache.demandMshrMisses::cpu.inst         1217                       # number of demand (read+write) MSHR misses (Count)
system.l2cache.demandMshrMisses::cpu.data    118979459                       # number of demand (read+write) MSHR misses (Count)
system.l2cache.demandMshrMisses::total      118980676                       # number of demand (read+write) MSHR misses (Count)
system.l2cache.overallMshrMisses::cpu.inst         1217                       # number of overall MSHR misses (Count)
system.l2cache.overallMshrMisses::cpu.data    118979459                       # number of overall MSHR misses (Count)
system.l2cache.overallMshrMisses::total     118980676                       # number of overall MSHR misses (Count)
system.l2cache.demandMshrMissLatency::cpu.inst     69151800                       # number of demand (read+write) MSHR miss ticks (Tick)
system.l2cache.demandMshrMissLatency::cpu.data 6945565626255                       # number of demand (read+write) MSHR miss ticks (Tick)
system.l2cache.demandMshrMissLatency::total 6945634778055                       # number of demand (read+write) MSHR miss ticks (Tick)
system.l2cache.overallMshrMissLatency::cpu.inst     69151800                       # number of overall MSHR miss ticks (Tick)
system.l2cache.overallMshrMissLatency::cpu.data 6945565626255                       # number of overall MSHR miss ticks (Tick)
system.l2cache.overallMshrMissLatency::total 6945634778055                       # number of overall MSHR miss ticks (Tick)
system.l2cache.demandMshrMissRate::cpu.inst     0.962816                       # mshr miss ratio for demand accesses (Ratio)
system.l2cache.demandMshrMissRate::cpu.data     0.566552                       # mshr miss ratio for demand accesses (Ratio)
system.l2cache.demandMshrMissRate::total     0.566554                       # mshr miss ratio for demand accesses (Ratio)
system.l2cache.overallMshrMissRate::cpu.inst     0.962816                       # mshr miss ratio for overall accesses (Ratio)
system.l2cache.overallMshrMissRate::cpu.data     0.566552                       # mshr miss ratio for overall accesses (Ratio)
system.l2cache.overallMshrMissRate::total     0.566554                       # mshr miss ratio for overall accesses (Ratio)
system.l2cache.demandAvgMshrMissLatency::cpu.inst 56821.528348                       # average overall mshr miss latency ((Tick/Count))
system.l2cache.demandAvgMshrMissLatency::cpu.data 58376.174212                       # average overall mshr miss latency ((Tick/Count))
system.l2cache.demandAvgMshrMissLatency::total 58376.158310                       # average overall mshr miss latency ((Tick/Count))
system.l2cache.overallAvgMshrMissLatency::cpu.inst 56821.528348                       # average overall mshr miss latency ((Tick/Count))
system.l2cache.overallAvgMshrMissLatency::cpu.data 58376.174212                       # average overall mshr miss latency ((Tick/Count))
system.l2cache.overallAvgMshrMissLatency::total 58376.158310                       # average overall mshr miss latency ((Tick/Count))
system.l2cache.replacements                 118976581                       # number of replacements (Count)
system.l2cache.CleanEvict.mshrMisses::writebacks          231                       # number of CleanEvict MSHR misses (Count)
system.l2cache.CleanEvict.mshrMisses::total          231                       # number of CleanEvict MSHR misses (Count)
system.l2cache.CleanEvict.mshrMissRate::writebacks          inf                       # mshr miss rate for CleanEvict accesses (Ratio)
system.l2cache.CleanEvict.mshrMissRate::total          inf                       # mshr miss rate for CleanEvict accesses (Ratio)
system.l2cache.ReadExReq.hits::cpu.data      45511500                       # number of ReadExReq hits (Count)
system.l2cache.ReadExReq.hits::total         45511500                       # number of ReadExReq hits (Count)
system.l2cache.ReadExReq.misses::cpu.data     59491373                       # number of ReadExReq misses (Count)
system.l2cache.ReadExReq.misses::total       59491373                       # number of ReadExReq misses (Count)
system.l2cache.ReadExReq.missLatency::cpu.data 3882584883315                       # number of ReadExReq miss ticks (Tick)
system.l2cache.ReadExReq.missLatency::total 3882584883315                       # number of ReadExReq miss ticks (Tick)
system.l2cache.ReadExReq.accesses::cpu.data    105002873                       # number of ReadExReq accesses(hits+misses) (Count)
system.l2cache.ReadExReq.accesses::total    105002873                       # number of ReadExReq accesses(hits+misses) (Count)
system.l2cache.ReadExReq.missRate::cpu.data     0.566569                       # miss rate for ReadExReq accesses (Ratio)
system.l2cache.ReadExReq.missRate::total     0.566569                       # miss rate for ReadExReq accesses (Ratio)
system.l2cache.ReadExReq.avgMissLatency::cpu.data 65262.990036                       # average ReadExReq miss latency ((Tick/Count))
system.l2cache.ReadExReq.avgMissLatency::total 65262.990036                       # average ReadExReq miss latency ((Tick/Count))
system.l2cache.ReadExReq.mshrMisses::cpu.data     59491373                       # number of ReadExReq MSHR misses (Count)
system.l2cache.ReadExReq.mshrMisses::total     59491373                       # number of ReadExReq MSHR misses (Count)
system.l2cache.ReadExReq.mshrMissLatency::cpu.data 3472094409615                       # number of ReadExReq MSHR miss ticks (Tick)
system.l2cache.ReadExReq.mshrMissLatency::total 3472094409615                       # number of ReadExReq MSHR miss ticks (Tick)
system.l2cache.ReadExReq.mshrMissRate::cpu.data     0.566569                       # mshr miss rate for ReadExReq accesses (Ratio)
system.l2cache.ReadExReq.mshrMissRate::total     0.566569                       # mshr miss rate for ReadExReq accesses (Ratio)
system.l2cache.ReadExReq.avgMshrMissLatency::cpu.data 58362.990036                       # average ReadExReq mshr miss latency ((Tick/Count))
system.l2cache.ReadExReq.avgMshrMissLatency::total 58362.990036                       # average ReadExReq mshr miss latency ((Tick/Count))
system.l2cache.ReadSharedReq.hits::cpu.inst           47                       # number of ReadSharedReq hits (Count)
system.l2cache.ReadSharedReq.hits::cpu.data     45515252                       # number of ReadSharedReq hits (Count)
system.l2cache.ReadSharedReq.hits::total     45515299                       # number of ReadSharedReq hits (Count)
system.l2cache.ReadSharedReq.misses::cpu.inst         1217                       # number of ReadSharedReq misses (Count)
system.l2cache.ReadSharedReq.misses::cpu.data     59488086                       # number of ReadSharedReq misses (Count)
system.l2cache.ReadSharedReq.misses::total     59489303                       # number of ReadSharedReq misses (Count)
system.l2cache.ReadSharedReq.missLatency::cpu.inst     77549100                       # number of ReadSharedReq miss ticks (Tick)
system.l2cache.ReadSharedReq.missLatency::cpu.data 3883939010040                       # number of ReadSharedReq miss ticks (Tick)
system.l2cache.ReadSharedReq.missLatency::total 3884016559140                       # number of ReadSharedReq miss ticks (Tick)
system.l2cache.ReadSharedReq.accesses::cpu.inst         1264                       # number of ReadSharedReq accesses(hits+misses) (Count)
system.l2cache.ReadSharedReq.accesses::cpu.data    105003338                       # number of ReadSharedReq accesses(hits+misses) (Count)
system.l2cache.ReadSharedReq.accesses::total    105004602                       # number of ReadSharedReq accesses(hits+misses) (Count)
system.l2cache.ReadSharedReq.missRate::cpu.inst     0.962816                       # miss rate for ReadSharedReq accesses (Ratio)
system.l2cache.ReadSharedReq.missRate::cpu.data     0.566535                       # miss rate for ReadSharedReq accesses (Ratio)
system.l2cache.ReadSharedReq.missRate::total     0.566540                       # miss rate for ReadSharedReq accesses (Ratio)
system.l2cache.ReadSharedReq.avgMissLatency::cpu.inst 63721.528348                       # average ReadSharedReq miss latency ((Tick/Count))
system.l2cache.ReadSharedReq.avgMissLatency::cpu.data 65289.359117                       # average ReadSharedReq miss latency ((Tick/Count))
system.l2cache.ReadSharedReq.avgMissLatency::total 65289.327043                       # average ReadSharedReq miss latency ((Tick/Count))
system.l2cache.ReadSharedReq.mshrMisses::cpu.inst         1217                       # number of ReadSharedReq MSHR misses (Count)
system.l2cache.ReadSharedReq.mshrMisses::cpu.data     59488086                       # number of ReadSharedReq MSHR misses (Count)
system.l2cache.ReadSharedReq.mshrMisses::total     59489303                       # number of ReadSharedReq MSHR misses (Count)
system.l2cache.ReadSharedReq.mshrMissLatency::cpu.inst     69151800                       # number of ReadSharedReq MSHR miss ticks (Tick)
system.l2cache.ReadSharedReq.mshrMissLatency::cpu.data 3473471216640                       # number of ReadSharedReq MSHR miss ticks (Tick)
system.l2cache.ReadSharedReq.mshrMissLatency::total 3473540368440                       # number of ReadSharedReq MSHR miss ticks (Tick)
system.l2cache.ReadSharedReq.mshrMissRate::cpu.inst     0.962816                       # mshr miss rate for ReadSharedReq accesses (Ratio)
system.l2cache.ReadSharedReq.mshrMissRate::cpu.data     0.566535                       # mshr miss rate for ReadSharedReq accesses (Ratio)
system.l2cache.ReadSharedReq.mshrMissRate::total     0.566540                       # mshr miss rate for ReadSharedReq accesses (Ratio)
system.l2cache.ReadSharedReq.avgMshrMissLatency::cpu.inst 56821.528348                       # average ReadSharedReq mshr miss latency ((Tick/Count))
system.l2cache.ReadSharedReq.avgMshrMissLatency::cpu.data 58389.359117                       # average ReadSharedReq mshr miss latency ((Tick/Count))
system.l2cache.ReadSharedReq.avgMshrMissLatency::total 58389.327043                       # average ReadSharedReq mshr miss latency ((Tick/Count))
system.l2cache.WritebackDirty.hits::writebacks    210004415                       # number of WritebackDirty hits (Count)
system.l2cache.WritebackDirty.hits::total    210004415                       # number of WritebackDirty hits (Count)
system.l2cache.WritebackDirty.accesses::writebacks    210004415                       # number of WritebackDirty accesses(hits+misses) (Count)
system.l2cache.WritebackDirty.accesses::total    210004415                       # number of WritebackDirty accesses(hits+misses) (Count)
system.l2cache.power_state.pwrStateResidencyTicks::UNDEFINED 18581886713655                       # Cumulative time (in ticks) in various power states (Tick)
system.l2cache.tags.tagsInUse             4095.951552                       # Average ticks per tags in use ((Tick/Count))
system.l2cache.tags.totalRefs               420013706                       # Total number of references to valid blocks. (Count)
system.l2cache.tags.sampledRefs             118980677                       # Sample count of references to valid blocks. (Count)
system.l2cache.tags.avgRefs                  3.530100                       # Average number of references to valid blocks. ((Count/Count))
system.l2cache.tags.warmupTick                  69345                       # The tick when the warmup percentage was hit. (Tick)
system.l2cache.tags.occupancies::writebacks     0.000019                       # Average occupied blocks per tick, per requestor ((Count/Tick))
system.l2cache.tags.occupancies::cpu.inst     0.020569                       # Average occupied blocks per tick, per requestor ((Count/Tick))
system.l2cache.tags.occupancies::cpu.data  4095.930965                       # Average occupied blocks per tick, per requestor ((Count/Tick))
system.l2cache.tags.avgOccs::writebacks      0.000000                       # Average percentage of cache occupancy ((Ratio/Tick))
system.l2cache.tags.avgOccs::cpu.inst        0.000005                       # Average percentage of cache occupancy ((Ratio/Tick))
system.l2cache.tags.avgOccs::cpu.data        0.999983                       # Average percentage of cache occupancy ((Ratio/Tick))
system.l2cache.tags.avgOccs::total           0.999988                       # Average percentage of cache occupancy ((Ratio/Tick))
system.l2cache.tags.occupanciesTaskId::1024         4096                       # Occupied blocks per task id (Count)
system.l2cache.tags.ageTaskId_1024::0             121                       # Occupied blocks per task id, per block age (Count)
system.l2cache.tags.ageTaskId_1024::1             849                       # Occupied blocks per task id, per block age (Count)
system.l2cache.tags.ageTaskId_1024::2            3126                       # Occupied blocks per task id, per block age (Count)
system.l2cache.tags.ratioOccsTaskId::1024            1                       # Ratio of occupied blocks and all blocks, per task id (Ratio)
system.l2cache.tags.tagAccesses            3479092173                       # Number of tag accesses (Count)
system.l2cache.tags.dataAccesses           3479092173                       # Number of data accesses (Count)
system.l2cache.tags.power_state.pwrStateResidencyTicks::UNDEFINED 18581886713655                       # Cumulative time (in ticks) in various power states (Tick)
system.mem_ctrl.avgPriority_writebacks::samples 118973112.00                       # Average QoS priority value for accepted requests (Count)
system.mem_ctrl.avgPriority_cpu.inst::samples      1217.00                       # Average QoS priority value for accepted requests (Count)
system.mem_ctrl.avgPriority_cpu.data::samples 118402424.00                       # Average QoS priority value for accepted requests (Count)
system.mem_ctrl.priorityMinLatency       0.000000017492                       # per QoS priority minimum request to response latency (Second)
system.mem_ctrl.priorityMaxLatency       0.156053029502                       # per QoS priority maximum request to response latency (Second)
system.mem_ctrl.numReadWriteTurnArounds       6871266                       # Number of turnarounds from READ to WRITE (Count)
system.mem_ctrl.numWriteReadTurnArounds       6871266                       # Number of turnarounds from WRITE to READ (Count)
system.mem_ctrl.numStayReadState            352785566                       # Number of times bus staying in READ state (Count)
system.mem_ctrl.numStayWriteState           112221280                       # Number of times bus staying in WRITE state (Count)
system.mem_ctrl.readReqs                    118980676                       # Number of read requests accepted (Count)
system.mem_ctrl.writeReqs                   118974476                       # Number of write requests accepted (Count)
system.mem_ctrl.readBursts                  118980676                       # Number of controller read bursts, including those serviced by the write queue (Count)
system.mem_ctrl.writeBursts                 118974476                       # Number of controller write bursts, including those merged in the write queue (Count)
system.mem_ctrl.servicedByWrQ                  577035                       # Number of controller read bursts serviced by the write queue (Count)
system.mem_ctrl.mergedWrBursts                   1364                       # Number of controller write bursts merged with an existing one (Count)
system.mem_ctrl.neitherReadNorWriteReqs             0                       # Number of requests that are neither read nor write (Count)
system.mem_ctrl.avgRdQLen                        1.00                       # Average read queue length when enqueuing ((Count/Tick))
system.mem_ctrl.avgWrQLen                       57.08                       # Average write queue length when enqueuing ((Count/Tick))
system.mem_ctrl.numRdRetry                          0                       # Number of times read queue was full causing retry (Count)
system.mem_ctrl.numWrRetry                          0                       # Number of times write queue was full causing retry (Count)
system.mem_ctrl.readPktSize::0                      0                       # Read request sizes (log2) (Count)
system.mem_ctrl.readPktSize::1                      0                       # Read request sizes (log2) (Count)
system.mem_ctrl.readPktSize::2                      0                       # Read request sizes (log2) (Count)
system.mem_ctrl.readPktSize::3                      0                       # Read request sizes (log2) (Count)
system.mem_ctrl.readPktSize::4                      0                       # Read request sizes (log2) (Count)
system.mem_ctrl.readPktSize::5                      0                       # Read request sizes (log2) (Count)
system.mem_ctrl.readPktSize::6              118980676                       # Read request sizes (log2) (Count)
system.mem_ctrl.writePktSize::0                     0                       # Write request sizes (log2) (Count)
system.mem_ctrl.writePktSize::1                     0                       # Write request sizes (log2) (Count)
system.mem_ctrl.writePktSize::2                     0                       # Write request sizes (log2) (Count)
system.mem_ctrl.writePktSize::3                     0                       # Write request sizes (log2) (Count)
system.mem_ctrl.writePktSize::4                     0                       # Write request sizes (log2) (Count)
system.mem_ctrl.writePktSize::5                     0                       # Write request sizes (log2) (Count)
system.mem_ctrl.writePktSize::6             118974476                       # Write request sizes (log2) (Count)
system.mem_ctrl.rdQLenPdf::0                118403640                       # What read queue length does an incoming req see (Count)
system.mem_ctrl.rdQLenPdf::1                        1                       # What read queue length does an incoming req see (Count)
system.mem_ctrl.rdQLenPdf::2                        0                       # What read queue length does an incoming req see (Count)
system.mem_ctrl.rdQLenPdf::3                        0                       # What read queue length does an incoming req see (Count)
system.mem_ctrl.rdQLenPdf::4                        0                       # What read queue length does an incoming req see (Count)
system.mem_ctrl.rdQLenPdf::5                        0                       # What read queue length does an incoming req see (Count)
system.mem_ctrl.rdQLenPdf::6                        0                       # What read queue length does an incoming req see (Count)
system.mem_ctrl.rdQLenPdf::7                        0                       # What read queue length does an incoming req see (Count)
system.mem_ctrl.rdQLenPdf::8                        0                       # What read queue length does an incoming req see (Count)
system.mem_ctrl.rdQLenPdf::9                        0                       # What read queue length does an incoming req see (Count)
system.mem_ctrl.rdQLenPdf::10                       0                       # What read queue length does an incoming req see (Count)
system.mem_ctrl.rdQLenPdf::11                       0                       # What read queue length does an incoming req see (Count)
system.mem_ctrl.rdQLenPdf::12                       0                       # What read queue length does an incoming req see (Count)
system.mem_ctrl.rdQLenPdf::13                       0                       # What read queue length does an incoming req see (Count)
system.mem_ctrl.rdQLenPdf::14                       0                       # What read queue length does an incoming req see (Count)
system.mem_ctrl.rdQLenPdf::15                       0                       # What read queue length does an incoming req see (Count)
system.mem_ctrl.rdQLenPdf::16                       0                       # What read queue length does an incoming req see (Count)
system.mem_ctrl.rdQLenPdf::17                       0                       # What read queue length does an incoming req see (Count)
system.mem_ctrl.rdQLenPdf::18                       0                       # What read queue length does an incoming req see (Count)
system.mem_ctrl.rdQLenPdf::19                       0                       # What read queue length does an incoming req see (Count)
system.mem_ctrl.rdQLenPdf::20                       0                       # What read queue length does an incoming req see (Count)
system.mem_ctrl.rdQLenPdf::21                       0                       # What read queue length does an incoming req see (Count)
system.mem_ctrl.rdQLenPdf::22                       0                       # What read queue length does an incoming req see (Count)
system.mem_ctrl.rdQLenPdf::23                       0                       # What read queue length does an incoming req see (Count)
system.mem_ctrl.rdQLenPdf::24                       0                       # What read queue length does an incoming req see (Count)
system.mem_ctrl.rdQLenPdf::25                       0                       # What read queue length does an incoming req see (Count)
system.mem_ctrl.rdQLenPdf::26                       0                       # What read queue length does an incoming req see (Count)
system.mem_ctrl.rdQLenPdf::27                       0                       # What read queue length does an incoming req see (Count)
system.mem_ctrl.rdQLenPdf::28                       0                       # What read queue length does an incoming req see (Count)
system.mem_ctrl.rdQLenPdf::29                       0                       # What read queue length does an incoming req see (Count)
system.mem_ctrl.rdQLenPdf::30                       0                       # What read queue length does an incoming req see (Count)
system.mem_ctrl.rdQLenPdf::31                       0                       # What read queue length does an incoming req see (Count)
system.mem_ctrl.rdQLenPdf::32                       0                       # What read queue length does an incoming req see (Count)
system.mem_ctrl.rdQLenPdf::33                       0                       # What read queue length does an incoming req see (Count)
system.mem_ctrl.rdQLenPdf::34                       0                       # What read queue length does an incoming req see (Count)
system.mem_ctrl.rdQLenPdf::35                       0                       # What read queue length does an incoming req see (Count)
system.mem_ctrl.rdQLenPdf::36                       0                       # What read queue length does an incoming req see (Count)
system.mem_ctrl.rdQLenPdf::37                       0                       # What read queue length does an incoming req see (Count)
system.mem_ctrl.rdQLenPdf::38                       0                       # What read queue length does an incoming req see (Count)
system.mem_ctrl.rdQLenPdf::39                       0                       # What read queue length does an incoming req see (Count)
system.mem_ctrl.rdQLenPdf::40                       0                       # What read queue length does an incoming req see (Count)
system.mem_ctrl.rdQLenPdf::41                       0                       # What read queue length does an incoming req see (Count)
system.mem_ctrl.rdQLenPdf::42                       0                       # What read queue length does an incoming req see (Count)
system.mem_ctrl.rdQLenPdf::43                       0                       # What read queue length does an incoming req see (Count)
system.mem_ctrl.rdQLenPdf::44                       0                       # What read queue length does an incoming req see (Count)
system.mem_ctrl.rdQLenPdf::45                       0                       # What read queue length does an incoming req see (Count)
system.mem_ctrl.rdQLenPdf::46                       0                       # What read queue length does an incoming req see (Count)
system.mem_ctrl.rdQLenPdf::47                       0                       # What read queue length does an incoming req see (Count)
system.mem_ctrl.rdQLenPdf::48                       0                       # What read queue length does an incoming req see (Count)
system.mem_ctrl.rdQLenPdf::49                       0                       # What read queue length does an incoming req see (Count)
system.mem_ctrl.rdQLenPdf::50                       0                       # What read queue length does an incoming req see (Count)
system.mem_ctrl.rdQLenPdf::51                       0                       # What read queue length does an incoming req see (Count)
system.mem_ctrl.rdQLenPdf::52                       0                       # What read queue length does an incoming req see (Count)
system.mem_ctrl.rdQLenPdf::53                       0                       # What read queue length does an incoming req see (Count)
system.mem_ctrl.rdQLenPdf::54                       0                       # What read queue length does an incoming req see (Count)
system.mem_ctrl.rdQLenPdf::55                       0                       # What read queue length does an incoming req see (Count)
system.mem_ctrl.rdQLenPdf::56                       0                       # What read queue length does an incoming req see (Count)
system.mem_ctrl.rdQLenPdf::57                       0                       # What read queue length does an incoming req see (Count)
system.mem_ctrl.rdQLenPdf::58                       0                       # What read queue length does an incoming req see (Count)
system.mem_ctrl.rdQLenPdf::59                       0                       # What read queue length does an incoming req see (Count)
system.mem_ctrl.rdQLenPdf::60                       0                       # What read queue length does an incoming req see (Count)
system.mem_ctrl.rdQLenPdf::61                       0                       # What read queue length does an incoming req see (Count)
system.mem_ctrl.rdQLenPdf::62                       0                       # What read queue length does an incoming req see (Count)
system.mem_ctrl.rdQLenPdf::63                       0                       # What read queue length does an incoming req see (Count)
system.mem_ctrl.wrQLenPdf::0                        1                       # What write queue length does an incoming req see (Count)
[...]
system.mem_ctrl.wrPerTurnAround::26                41      0.00%    100.00% # Writes before turning the bus around for reads (Count)
system.mem_ctrl.wrPerTurnAround::total        6871266                       # Writes before turning the bus around for reads (Count)
system.mem_ctrl.bytesReadWrQ                 36930240                       # Total number of bytes read from write queue (Byte)
system.mem_ctrl.bytesReadSys               7614763264                       # Total read bytes from the system interface side (Byte)
system.mem_ctrl.bytesWrittenSys            7614366464                       # Total written bytes from the system interface side (Byte)
system.mem_ctrl.avgRdBWSys               409794946.08608556                       # Average system read bandwidth in Byte/s ((Byte/Second))
system.mem_ctrl.avgWrBWSys               409773591.95740557                       # Average system write bandwidth in Byte/s ((Byte/Second))
system.mem_ctrl.totGap                   18581886701925                       # Total gap between requests (Tick)
system.mem_ctrl.avgGap                       78089.87                       # Average gap between requests ((Tick/Count))
system.mem_ctrl.requestorReadBytes::cpu.inst        77888                       # Per-requestor bytes read from memory (Byte)
system.mem_ctrl.requestorReadBytes::cpu.data   7577755136                       # Per-requestor bytes read from memory (Byte)
system.mem_ctrl.requestorWriteBytes::writebacks   7614275840                       # Per-requestor bytes write to memory (Byte)
system.mem_ctrl.requestorReadRate::cpu.inst 4191.608807019773                       # Per-requestor bytes read from memory rate ((Byte/Second))
system.mem_ctrl.requestorReadRate::cpu.data 407803322.276819527149                       # Per-requestor bytes read from memory rate ((Byte/Second))
system.mem_ctrl.requestorWriteRate::writebacks 409768714.949952244759                       # Per-requestor bytes write to memory rate ((Byte/Second))
system.mem_ctrl.requestorReadAccesses::cpu.inst         1217                       # Per-requestor read serviced memory accesses (Count)
system.mem_ctrl.requestorReadAccesses::cpu.data    118979459                       # Per-requestor read serviced memory accesses (Count)
system.mem_ctrl.requestorWriteAccesses::writebacks    118974476                       # Per-requestor write serviced memory accesses (Count)
system.mem_ctrl.requestorReadTotalLat::cpu.inst     31663962                       # Per-requestor read total memory access latency (Tick)
system.mem_ctrl.requestorReadTotalLat::cpu.data 3285372399865                       # Per-requestor read total memory access latency (Tick)
system.mem_ctrl.requestorWriteTotalLat::writebacks 1040260585253566                       # Per-requestor write total memory access latency (Tick)
system.mem_ctrl.requestorReadAvgLat::cpu.inst     26018.05                       # Per-requestor read average memory access latency ((Tick/Count))
system.mem_ctrl.requestorReadAvgLat::cpu.data     27612.94                       # Per-requestor read average memory access latency ((Tick/Count))
system.mem_ctrl.requestorWriteAvgLat::writebacks   8743560.97                       # Per-requestor write average memory access latency ((Tick/Count))
system.mem_ctrl.dram.bytesRead::cpu.inst        77888                       # Number of bytes read from this memory (Byte)
system.mem_ctrl.dram.bytesRead::cpu.data   7614685376                       # Number of bytes read from this memory (Byte)
system.mem_ctrl.dram.bytesRead::total      7614763264                       # Number of bytes read from this memory (Byte)
system.mem_ctrl.dram.bytesInstRead::cpu.inst        77888                       # Number of instructions bytes read from this memory (Byte)
system.mem_ctrl.dram.bytesInstRead::total        77888                       # Number of instructions bytes read from this memory (Byte)
system.mem_ctrl.dram.bytesWritten::writebacks   7614366464                       # Number of bytes written to this memory (Byte)
system.mem_ctrl.dram.bytesWritten::total   7614366464                       # Number of bytes written to this memory (Byte)
system.mem_ctrl.dram.numReads::cpu.inst          1217                       # Number of read requests responded to by this memory (Count)
system.mem_ctrl.dram.numReads::cpu.data     118979459                       # Number of read requests responded to by this memory (Count)
system.mem_ctrl.dram.numReads::total        118980676                       # Number of read requests responded to by this memory (Count)
system.mem_ctrl.dram.numWrites::writebacks    118974476                       # Number of write requests responded to by this memory (Count)
system.mem_ctrl.dram.numWrites::total       118974476                       # Number of write requests responded to by this memory (Count)
system.mem_ctrl.dram.bwRead::cpu.inst            4192                       # Total read bandwidth from this memory ((Byte/Second))
system.mem_ctrl.dram.bwRead::cpu.data       409790754                       # Total read bandwidth from this memory ((Byte/Second))
system.mem_ctrl.dram.bwRead::total          409794946                       # Total read bandwidth from this memory ((Byte/Second))
system.mem_ctrl.dram.bwInstRead::cpu.inst         4192                       # Instruction read bandwidth from this memory ((Byte/Second))
system.mem_ctrl.dram.bwInstRead::total           4192                       # Instruction read bandwidth from this memory ((Byte/Second))
system.mem_ctrl.dram.bwWrite::writebacks    409773592                       # Write bandwidth from this memory ((Byte/Second))
system.mem_ctrl.dram.bwWrite::total         409773592                       # Write bandwidth from this memory ((Byte/Second))
system.mem_ctrl.dram.bwTotal::writebacks    409773592                       # Total bandwidth to/from this memory ((Byte/Second))
system.mem_ctrl.dram.bwTotal::cpu.inst           4192                       # Total bandwidth to/from this memory ((Byte/Second))
system.mem_ctrl.dram.bwTotal::cpu.data      409790754                       # Total bandwidth to/from this memory ((Byte/Second))
system.mem_ctrl.dram.bwTotal::total         819568538                       # Total bandwidth to/from this memory ((Byte/Second))
system.mem_ctrl.dram.readBursts             118403641                       # Number of DRAM read bursts (Count)
system.mem_ctrl.dram.writeBursts            118973060                       # Number of DRAM write bursts (Count)
system.mem_ctrl.dram.perBankRdBursts::0      14752659                       # Per bank write bursts (Count)
system.mem_ctrl.dram.perBankRdBursts::1      14768033                       # Per bank write bursts (Count)
system.mem_ctrl.dram.perBankRdBursts::2      14833792                       # Per bank write bursts (Count)
system.mem_ctrl.dram.perBankRdBursts::3      14890826                       # Per bank write bursts (Count)
system.mem_ctrl.dram.perBankRdBursts::4      14861068                       # Per bank write bursts (Count)
system.mem_ctrl.dram.perBankRdBursts::5      14796065                       # Per bank write bursts (Count)
system.mem_ctrl.dram.perBankRdBursts::6      14751918                       # Per bank write bursts (Count)
system.mem_ctrl.dram.perBankRdBursts::7      14749280                       # Per bank write bursts (Count)
system.mem_ctrl.dram.perBankWrBursts::0      14821251                       # Per bank write bursts (Count)
system.mem_ctrl.dram.perBankWrBursts::1      14837387                       # Per bank write bursts (Count)
system.mem_ctrl.dram.perBankWrBursts::2      14907742                       # Per bank write bursts (Count)
system.mem_ctrl.dram.perBankWrBursts::3      14966357                       # Per bank write bursts (Count)
system.mem_ctrl.dram.perBankWrBursts::4      14935069                       # Per bank write bursts (Count)
system.mem_ctrl.dram.perBankWrBursts::5      14869611                       # Per bank write bursts (Count)
system.mem_ctrl.dram.perBankWrBursts::6      14819520                       # Per bank write bursts (Count)
system.mem_ctrl.dram.perBankWrBursts::7      14816123                       # Per bank write bursts (Count)
system.mem_ctrl.dram.totQLat             1214287575455                       # Total ticks spent queuing (Tick)
system.mem_ctrl.dram.totBusLat           394520931812                       # Total ticks spent in databus transfers (Tick)
system.mem_ctrl.dram.totMemAccLat        3285404063827                       # Total ticks spent from burst creation until serviced by the DRAM (Tick)
system.mem_ctrl.dram.avgQLat                 10255.49                       # Average queueing delay per DRAM burst ((Tick/Count))
system.mem_ctrl.dram.avgBusLat                3332.00                       # Average bus latency per DRAM burst ((Tick/Count))
system.mem_ctrl.dram.avgMemAccLat            27747.49                       # Average memory access latency per DRAM burst ((Tick/Count))
system.mem_ctrl.dram.readRowHits            105459434                       # Number of row buffer hits during reads (Count)
system.mem_ctrl.dram.writeRowHits           107877826                       # Number of row buffer hits during writes (Count)
system.mem_ctrl.dram.readRowHitRate             89.07                       # Row buffer hit rate for reads (Ratio)
system.mem_ctrl.dram.writeRowHitRate            90.67                       # Row buffer hit rate for writes (Ratio)
system.mem_ctrl.dram.bytesPerActivate::samples     24039435                       # Bytes accessed per row activation (Byte)
system.mem_ctrl.dram.bytesPerActivate::mean   631.966065                       # Bytes accessed per row activation (Byte)
system.mem_ctrl.dram.bytesPerActivate::gmean   482.195171                       # Bytes accessed per row activation (Byte)
system.mem_ctrl.dram.bytesPerActivate::stdev   353.780869                       # Bytes accessed per row activation (Byte)
system.mem_ctrl.dram.bytesPerActivate::0-127      1237595      5.15%      5.15% # Bytes accessed per row activation (Byte)
system.mem_ctrl.dram.bytesPerActivate::128-255      4152884     17.28%     22.42% # Bytes accessed per row activation (Byte)
system.mem_ctrl.dram.bytesPerActivate::256-383       899465      3.74%     26.17% # Bytes accessed per row activation (Byte)
system.mem_ctrl.dram.bytesPerActivate::384-511      2699357     11.23%     37.39% # Bytes accessed per row activation (Byte)
system.mem_ctrl.dram.bytesPerActivate::512-639      1966181      8.18%     45.57% # Bytes accessed per row activation (Byte)
system.mem_ctrl.dram.bytesPerActivate::640-767      2243604      9.33%     54.91% # Bytes accessed per row activation (Byte)
system.mem_ctrl.dram.bytesPerActivate::768-895      1969254      8.19%     63.10% # Bytes accessed per row activation (Byte)
system.mem_ctrl.dram.bytesPerActivate::896-1023      1023431      4.26%     67.36% # Bytes accessed per row activation (Byte)
system.mem_ctrl.dram.bytesPerActivate::1024-1151      7847664     32.64%    100.00% # Bytes accessed per row activation (Byte)
system.mem_ctrl.dram.bytesPerActivate::total     24039435                       # Bytes accessed per row activation (Byte)
system.mem_ctrl.dram.bytesRead             7577833024                       # Total bytes read (Byte)
system.mem_ctrl.dram.bytesWritten          7614275840                       # Total bytes written (Byte)
system.mem_ctrl.dram.avgRdBW               407.807514                       # Average DRAM read bandwidth in MiBytes/s ((Byte/Second))
system.mem_ctrl.dram.avgWrBW               409.768715                       # Average DRAM write bandwidth in MiBytes/s ((Byte/Second))
system.mem_ctrl.dram.peakBW                  19207.00                       # Theoretical peak bandwidth in MiByte/s ((Byte/Second))
system.mem_ctrl.dram.busUtil                     4.26                       # Data bus utilization in percentage (Ratio)
system.mem_ctrl.dram.busUtilRead                 2.12                       # Data bus utilization in percentage for reads (Ratio)
system.mem_ctrl.dram.busUtilWrite                2.13                       # Data bus utilization in percentage for writes (Ratio)
system.mem_ctrl.dram.pageHitRate                89.87                       # Row buffer hit rate, read and write combined (Ratio)
system.mem_ctrl.dram.power_state.pwrStateResidencyTicks::UNDEFINED 18581886713655                       # Cumulative time (in ticks) in various power states (Tick)
system.mem_ctrl.dram.rank0.actEnergy     131515233448.561600                       # Energy for activate commands per rank (pJ) (Joule)
system.mem_ctrl.dram.rank0.preEnergy     88782172101.333252                       # Energy for precharge commands per rank (pJ) (Joule)
system.mem_ctrl.dram.rank0.readEnergy    359329664697.133728                       # Energy for read commands per rank (pJ) (Joule)
system.mem_ctrl.dram.rank0.writeEnergy   332515616290.180603                       # Energy for write commands per rank (pJ) (Joule)
system.mem_ctrl.dram.rank0.refreshEnergy 910961066187.190186                       # Energy for refresh commands per rank (pJ) (Joule)
system.mem_ctrl.dram.rank0.actBackEnergy 3404883058248.333008                       # Energy for active background per rank (pJ) (Joule)
system.mem_ctrl.dram.rank0.preBackEnergy 858554071776.138306                       # Energy for precharge background per rank (pJ) (Joule)
system.mem_ctrl.dram.rank0.actPowerDownEnergy            0                       # Energy for active power-down per rank (pJ) (Joule)
system.mem_ctrl.dram.rank0.prePowerDownEnergy            0                       # Energy for precharge power-down per rank (pJ) (Joule)
system.mem_ctrl.dram.rank0.selfRefreshEnergy            0                       # Energy for self refresh per rank (pJ) (Joule)
system.mem_ctrl.dram.rank0.totalEnergy   6086540882682.009766                       # Total energy per rank (pJ) (Joule)
system.mem_ctrl.dram.rank0.averagePower    327.552362                       # Core power per rank (mW) (Watt)
system.mem_ctrl.dram.rank0.totalIdleTime            0                       # Total Idle time Per DRAM Rank (Tick)
system.mem_ctrl.dram.rank0.pwrStateTime::IDLE 5170000264235                       # Time in different power states (Tick)
system.mem_ctrl.dram.rank0.pwrStateTime::REF 835318750000                       # Time in different power states (Tick)
system.mem_ctrl.dram.rank0.pwrStateTime::SREF            0                       # Time in different power states (Tick)
system.mem_ctrl.dram.rank0.pwrStateTime::PRE_PDN            0                       # Time in different power states (Tick)
system.mem_ctrl.dram.rank0.pwrStateTime::ACT 12576567699420                       # Time in different power states (Tick)
system.mem_ctrl.dram.rank0.pwrStateTime::ACT_PDN            0                       # Time in different power states (Tick)
system.mem_ctrl.power_state.pwrStateResidencyTicks::UNDEFINED 18581886713655                       # Cumulative time (in ticks) in various power states (Tick)
system.membus.transDist::ReadResp            59489303                       # Transaction distribution (Count)
system.membus.transDist::WritebackDirty     118974476                       # Transaction distribution (Count)
system.membus.transDist::CleanEvict              1850                       # Transaction distribution (Count)
system.membus.transDist::ReadExReq           59491373                       # Transaction distribution (Count)
system.membus.transDist::ReadExResp          59491373                       # Transaction distribution (Count)
system.membus.transDist::ReadSharedReq       59489303                       # Transaction distribution (Count)
system.membus.pktCount_system.l2cache.mem_side_port::system.mem_ctrl.port    356937678                       # Packet count per connected requestor and responder (Count)
system.membus.pktCount_system.l2cache.mem_side_port::total    356937678                       # Packet count per connected requestor and responder (Count)
system.membus.pktCount::total               356937678                       # Packet count per connected requestor and responder (Count)
system.membus.pktSize_system.l2cache.mem_side_port::system.mem_ctrl.port  15229129728                       # Cumulative packet size per connected requestor and responder (Byte)
system.membus.pktSize_system.l2cache.mem_side_port::total  15229129728                       # Cumulative packet size per connected requestor and responder (Byte)
system.membus.pktSize::total              15229129728                       # Cumulative packet size per connected requestor and responder (Byte)
system.membus.snoops                                0                       # Total snoops (Count)
system.membus.snoopTraffic                          0                       # Total snoop traffic (Byte)
system.membus.snoopFanout::samples          118980676                       # Request fanout histogram (Count)
system.membus.snoopFanout::mean                     0                       # Request fanout histogram (Count)
system.membus.snoopFanout::stdev                    0                       # Request fanout histogram (Count)
system.membus.snoopFanout::underflows               0      0.00%      0.00% # Request fanout histogram (Count)
system.membus.snoopFanout::0                118980676    100.00%    100.00% # Request fanout histogram (Count)
system.membus.snoopFanout::1                        0      0.00%    100.00% # Request fanout histogram (Count)
system.membus.snoopFanout::overflows                0      0.00%    100.00% # Request fanout histogram (Count)
system.membus.snoopFanout::min_value                0                       # Request fanout histogram (Count)
system.membus.snoopFanout::max_value                0                       # Request fanout histogram (Count)
system.membus.snoopFanout::total            118980676                       # Request fanout histogram (Count)
system.membus.power_state.pwrStateResidencyTicks::UNDEFINED 18581886713655                       # Cumulative time (in ticks) in various power states (Tick)
system.membus.reqLayer2.occupancy        246279942570                       # Layer occupancy (ticks) (Tick)
system.membus.reqLayer2.utilization               0.0                       # Layer utilization (Ratio)
system.membus.respLayer0.occupancy       219130880508                       # Layer occupancy (ticks) (Tick)
system.membus.respLayer0.utilization              0.0                       # Layer utilization (Ratio)
system.membus.snoop_filter.totRequests      237957002                       # Total number of requests made to the snoop filter. (Count)
system.membus.snoop_filter.hitSingleRequests    118976326                       # Number of requests hitting in the snoop filter with a single holder of the requested data. (Count)
system.membus.snoop_filter.hitMultiRequests            0                       # Number of requests hitting in the snoop filter with multiple (>1) holders of the requested data. (Count)
system.membus.snoop_filter.totSnoops                0                       # Total number of snoops made to the snoop filter. (Count)
system.membus.snoop_filter.hitSingleSnoops            0                       # Number of snoops hitting in the snoop filter with a single holder of the requested data. (Count)
system.membus.snoop_filter.hitMultiSnoops            0                       # Number of snoops hitting in the snoop filter with multiple (>1) holders of the requested data. (Count)
system.workload.inst.arm                            0                       # number of arm instructions executed (Count)
system.workload.inst.quiesce                        0                       # number of quiesce instructions executed (Count)

---------- End Simulation Statistics   ----------
